                                  MODFLOW-2005     
      U.S. GEOLOGICAL SURVEY MODULAR FINITE-DIFFERENCE GROUND-WATER FLOW MODEL
                            VERSION 1.12.00 2/3/2017

 LIST FILE: static_ensemble_1133313.list
                         UNIT    2

 OPENING static_ensemble_1133313.dis
 FILE TYPE:DIS   UNIT   11   STATUS:OLD    
 FORMAT:FORMATTED              ACCESS:SEQUENTIAL          

 OPENING static_ensemble_1133313.bas
 FILE TYPE:BAS6   UNIT   13   STATUS:OLD    
 FORMAT:FORMATTED              ACCESS:SEQUENTIAL          

 OPENING static_ensemble_1133313.lpf
 FILE TYPE:LPF   UNIT   15   STATUS:OLD    
 FORMAT:FORMATTED              ACCESS:SEQUENTIAL          

 OPENING static_ensemble_1133313.evt
 FILE TYPE:EVT   UNIT   22   STATUS:OLD    
 FORMAT:FORMATTED              ACCESS:SEQUENTIAL          

 OPENING static_ensemble_1133313.rch
 FILE TYPE:RCH   UNIT   19   STATUS:OLD    
 FORMAT:FORMATTED              ACCESS:SEQUENTIAL          

 OPENING static_ensemble_1133313.riv
 FILE TYPE:RIV   UNIT   18   STATUS:OLD    
 FORMAT:FORMATTED              ACCESS:SEQUENTIAL          

 OPENING static_ensemble_1133313.wel
 FILE TYPE:WEL   UNIT   20   STATUS:OLD    
 FORMAT:FORMATTED              ACCESS:SEQUENTIAL          

 OPENING static_ensemble_1133313.oc
 FILE TYPE:OC   UNIT   14   STATUS:OLD    
 FORMAT:FORMATTED              ACCESS:SEQUENTIAL          

 OPENING static_ensemble_1133313.pcg
 FILE TYPE:PCG   UNIT   27   STATUS:OLD    
 FORMAT:FORMATTED              ACCESS:SEQUENTIAL          

 OPENING static_ensemble_1133313.cbc
 FILE TYPE:DATA(BINARY)   UNIT   53   STATUS:REPLACE
 FORMAT:UNFORMATTED            ACCESS:STREAM              

 OPENING static_ensemble_1133313.hds
 FILE TYPE:DATA(BINARY)   UNIT   51   STATUS:REPLACE
 FORMAT:UNFORMATTED            ACCESS:STREAM              

 OPENING static_ensemble_1133313.ddn
 FILE TYPE:DATA(BINARY)   UNIT   52   STATUS:REPLACE
 FORMAT:UNFORMATTED            ACCESS:STREAM              

 BAS -- BASIC PACKAGE, VERSION 7, 5/2/2005 INPUT READ FROM UNIT   13
 
 MODFLOW was compiled using mixed precision
 Precision of REAL variables:           6
 Precision of DOUBLE PRECISION variables:          15

 DISCRETIZATION INPUT DATA READ FROM UNIT   11
 # DIS package for MODFLOW-2005 generated by Flopy 3.9.5
    3 LAYERS        50 ROWS        50 COLUMNS
    1 STRESS PERIOD(S) IN SIMULATION
 MODEL TIME UNIT IS DAYS
 MODEL LENGTH UNIT IS METERS
  Confining bed flag for each layer:
   0   0   0

                     DELR =   1000.00    

                     DELC =   1000.00    



           TOP ELEVATION OF LAYER 1
 READING ON UNIT   11 WITH FORMAT: (50E15.6)           



             MODEL LAYER BOTTOM EL. FOR LAYER   1
 READING ON UNIT   11 WITH FORMAT: (50E15.6)           



             MODEL LAYER BOTTOM EL. FOR LAYER   2
 READING ON UNIT   11 WITH FORMAT: (50E15.6)           



             MODEL LAYER BOTTOM EL. FOR LAYER   3
 READING ON UNIT   11 WITH FORMAT: (50E15.6)           


 STRESS PERIOD     LENGTH       TIME STEPS     MULTIPLIER FOR DELT    SS FLAG
 ----------------------------------------------------------------------------
        1         1.000000          1                    1.000         SS

 STEADY-STATE SIMULATION



 
 # BAS6 package for MODFLOW-2005 generated by Flopy 3.9.5                        
 THE FREE FORMAT OPTION HAS BEEN SELECTED



                     BOUNDARY ARRAY FOR LAYER   1
 READING ON UNIT   13 WITH FORMAT: (50I10)             



                     BOUNDARY ARRAY FOR LAYER   2
 READING ON UNIT   13 WITH FORMAT: (50I10)             



                     BOUNDARY ARRAY FOR LAYER   3
 READING ON UNIT   13 WITH FORMAT: (50I10)             

 AQUIFER HEAD WILL BE SET TO  -999.99     AT ALL NO-FLOW NODES (IBOUND=0).



                       INITIAL HEAD FOR LAYER   1
 READING ON UNIT   13 WITH FORMAT: (50E15.6)           



                       INITIAL HEAD FOR LAYER   2
 READING ON UNIT   13 WITH FORMAT: (50E15.6)           



                       INITIAL HEAD FOR LAYER   3
 READING ON UNIT   13 WITH FORMAT: (50E15.6)           
 # OC package for MODFLOW-2005 generated by Flopy 3.9.5

 OUTPUT CONTROL IS SPECIFIED ONLY AT TIME STEPS FOR WHICH OUTPUT IS DESIRED
 COMPACT CELL-BY-CELL BUDGET FILES WILL BE WRITTEN
 AUXILIARY DATA WILL BE SAVED IN CELL-BY-CELL BUDGET FILES
 HEAD PRINT FORMAT CODE IS   0    DRAWDOWN PRINT FORMAT CODE IS   0
 HEADS WILL BE SAVED ON UNIT   51    DRAWDOWNS WILL BE SAVED ON UNIT   52

 LPF -- LAYER-PROPERTY FLOW PACKAGE, VERSION 7, 5/2/2005
         INPUT READ FROM UNIT   15
 # LPF package for MODFLOW-2005 generated by Flopy 3.9.5
 CELL-BY-CELL FLOWS WILL BE SAVED ON UNIT   53
 HEAD AT CELLS THAT CONVERT TO DRY= -1.00000E+30
 No named parameters
 STORAGECOEFFICIENT OPTION:
 Read storage coefficient rather than specific storage

   LAYER FLAGS:
 LAYER       LAYTYP        LAYAVG         CHANI        LAYVKA        LAYWET
 ---------------------------------------------------------------------------
    1             1             0     1.000E+00             0             0
    2             1             0     1.000E+00             0             0
    3             1             0     1.000E+00             0             0

   INTERPRETATION OF LAYER FLAGS:
                        INTERBLOCK     HORIZONTAL    DATA IN
         LAYER TYPE   TRANSMISSIVITY   ANISOTROPY   ARRAY VKA   WETTABILITY
 LAYER      (LAYTYP)      (LAYAVG)       (CHANI)      (LAYVKA)      (LAYWET)
 ---------------------------------------------------------------------------
    1   CONVERTIBLE      HARMONIC     1.000E+00    VERTICAL K  NON-WETTABLE
    2   CONVERTIBLE      HARMONIC     1.000E+00    VERTICAL K  NON-WETTABLE
    3   CONVERTIBLE      HARMONIC     1.000E+00    VERTICAL K  NON-WETTABLE

 WETTING CAPABILITY IS NOT ACTIVE IN ANY LAYER



              HYD. COND. ALONG ROWS FOR LAYER   1
 READING ON UNIT   15 WITH FORMAT: (50E15.6)           



                VERTICAL HYD. COND. FOR LAYER   1
 READING ON UNIT   15 WITH FORMAT: (50E15.6)           



              HYD. COND. ALONG ROWS FOR LAYER   2
 READING ON UNIT   15 WITH FORMAT: (50E15.6)           



                VERTICAL HYD. COND. FOR LAYER   2
 READING ON UNIT   15 WITH FORMAT: (50E15.6)           



              HYD. COND. ALONG ROWS FOR LAYER   3
 READING ON UNIT   15 WITH FORMAT: (50E15.6)           



                VERTICAL HYD. COND. FOR LAYER   3
 READING ON UNIT   15 WITH FORMAT: (50E15.6)           

 WEL -- WELL PACKAGE, VERSION 7, 5/2/2005 INPUT READ FROM UNIT   20
 # WEL package for MODFLOW-2005 generated by Flopy 3.9.5
 No named parameters
 MAXIMUM OF      3 ACTIVE WELLS AT ONE TIME


     0 Well parameters

 RIV -- RIVER PACKAGE, VERSION 7, 5/2/2005 INPUT READ FROM UNIT   18
 # RIV package for MODFLOW-2005 generated by Flopy 3.9.5
 No named parameters
 MAXIMUM OF     49 ACTIVE RIVER REACHES AT ONE TIME
 CELL-BY-CELL FLOWS WILL BE SAVED ON UNIT   53


     0 River parameters

 EVT -- EVAPOTRANSPIRATION PACKAGE, VERSION 7, 5/2/2005
         INPUT READ FROM UNIT   22
 # EVT package for MODFLOW-2005 generated by Flopy 3.9.5
 No named parameters
 OPTION 3 -- EVAPOTRANSPIRATION FROM HIGHEST ACTIVE NODE IN EACH VERTICAL COLUMN
 CELL-BY-CELL FLOWS WILL BE SAVED ON UNIT   53


     0 Evapotranspiration parameters

 RCH -- RECHARGE PACKAGE, VERSION 7, 5/2/2005 INPUT READ FROM UNIT   19
 # RCH package for MODFLOW-2005 generated by Flopy 3.9.5
 No named parameters
 OPTION 3 -- RECHARGE TO HIGHEST ACTIVE NODE IN EACH VERTICAL COLUMN
 CELL-BY-CELL FLOWS WILL BE SAVED ON UNIT   53


     0 Recharge parameters

 PCG -- CONJUGATE-GRADIENT SOLUTION PACKAGE, VERSION 7, 5/2/2005
 # PCG package for MODFLOW-2005 generated by Flopy 3.9.5
 MAXIMUM OF   5000 CALLS OF SOLUTION ROUTINE
 MAXIMUM OF    500 INTERNAL ITERATIONS PER CALL TO SOLUTION ROUTINE
 MATRIX PRECONDITIONING TYPE :    1



                                    SOLUTION BY THE CONJUGATE-GRADIENT METHOD
                                   -------------------------------------------
                    MAXIMUM NUMBER OF CALLS TO PCG ROUTINE =     5000
                        MAXIMUM ITERATIONS PER CALL TO PCG =      500
                               MATRIX PRECONDITIONING TYPE =        1
        RELAXATION FACTOR (ONLY USED WITH PRECOND. TYPE 1) =    0.97000E+00
 PARAMETER OF POLYNOMIAL PRECOND. = 2 (2) OR IS CALCULATED :        0
                         HEAD CHANGE CRITERION FOR CLOSURE =    0.10000E-04
                     RESIDUAL CHANGE CRITERION FOR CLOSURE =    0.10000E-04
            PCG HEAD AND RESIDUAL CHANGE PRINTOUT INTERVAL =      999
     PRINTING FROM SOLVER IS LIMITED(1) OR SUPPRESSED (>1) =        3
                            STEADY-STATE DAMPING PARAMETER =    0.10000E-01
                               TRANSIENT DAMPING PARAMETER =    0.10000E-01
1
                            STRESS PERIOD NO.    1, LENGTH =   1.000000    
                            -----------------------------------------------

                              NUMBER OF TIME STEPS =     1

                               MULTIPLIER FOR DELT =     1.000

                            INITIAL TIME STEP SIZE =   1.000000    

 WELL NO.  LAYER   ROW   COL   STRESS RATE         
 --------------------------------------------------
      1      3     22     39      -1500.    
      2      1     13     15      -4500.    
      3      1     25     26       375.0    

      3 WELLS

 REACH NO.  LAYER   ROW   COL     STAGE      CONDUCTANCE     BOTTOM EL.         
 -------------------------------------------------------------------------------
      1      1     25      2       100.5           5000.           98.00    
      2      1     25      3       99.50           5000.           97.00    
      3      1     25      4       98.50           5000.           96.00    
      4      1     25      5       97.50           5000.           95.00    
      5      1     25      6       96.50           5000.           94.00    
      6      1     25      7       95.50           5000.           93.00    
      7      1     25      8       94.50           5000.           92.00    
      8      1     25      9       93.50           5000.           91.00    
      9      1     25     10       92.50           5000.           90.00    
     10      1     25     11       91.50           5000.           89.00    
     11      1     25     12       90.50           5000.           88.00    
     12      1     25     13       89.50           5000.           87.00    
     13      1     25     14       88.50           5000.           86.00    
     14      1     25     15       87.50           5000.           85.00    
     15      1     25     16       86.50           5000.           84.00    
     16      1     25     17       85.50           5000.           83.00    
     17      1     25     18       84.50           5000.           82.00    
     18      1     25     19       83.50           5000.           81.00    
     19      1     25     20       82.50           5000.           80.00    
     20      1     25     21       81.50           5000.           79.00    
     21      1     25     22       80.50           5000.           78.00    
     22      1     25     23       79.50           5000.           77.00    
     23      1     25     24       78.50           5000.           76.00    
     24      1     25     25       77.50           5000.           75.00    
     25      1     25     26       77.40           5000.           74.90    
     26      1     25     27       77.30           5000.           74.80    
     27      1     25     28       77.20           5000.           74.70    
     28      1     25     29       77.10           5000.           74.60    
     29      1     25     30       77.00           5000.           74.50    
     30      1     25     31       76.90           5000.           74.40    
     31      1     25     32       76.80           5000.           74.30    
     32      1     25     33       76.70           5000.           74.20    
     33      1     25     34       76.60           5000.           74.10    
     34      1     25     35       76.50           5000.           74.00    
     35      1     25     36       76.40           5000.           73.90    
     36      1     25     37       76.30           5000.           73.80    
     37      1     25     38       76.20           5000.           73.70    
     38      1     25     39       76.10           5000.           73.60    
     39      1     25     40       76.00           5000.           73.50    
     40      1     25     41       75.90           5000.           73.40    
     41      1     25     42       75.80           5000.           73.30    
     42      1     25     43       75.70           5000.           73.20    
     43      1     25     44       75.60           5000.           73.10    
     44      1     25     45       75.50           5000.           73.00    
     45      1     25     46       75.40           5000.           72.90    
     46      1     25     47       75.30           5000.           72.80    
     47      1     25     48       75.20           5000.           72.70    
     48      1     25     49       75.10           5000.           72.60    
     49      1     25     50       75.00           5000.           72.50    

     49 RIVER REACHES



                         ET SURFACE
 READING ON UNIT   22 WITH FORMAT: (50E15.6)           



            EVAPOTRANSPIRATION RATE
 READING ON UNIT   22 WITH FORMAT: (50E15.6)           

         EXTINCTION DEPTH =   10.0000    



                           RECHARGE
 READING ON UNIT   19 WITH FORMAT: (50E15.6)           
 
 SOLVING FOR HEAD 

 OUTPUT CONTROL FOR STRESS PERIOD    1   TIME STEP    1
    SAVE HEAD FOR ALL LAYERS
    SAVE DRAWDOWN FOR ALL LAYERS
    SAVE BUDGET
    PRINT HEAD FOR ALL LAYERS
    PRINT BUDGET
 UBDSV2 SAVING "   CONSTANT HEAD" ON UNIT  53 AT TIME STEP  1, STRESS PERIOD   1
 UBDSV1 SAVING "FLOW RIGHT FACE " ON UNIT  53 AT TIME STEP  1, STRESS PERIOD   1
 UBDSV1 SAVING "FLOW FRONT FACE " ON UNIT  53 AT TIME STEP  1, STRESS PERIOD   1
 UBDSV1 SAVING "FLOW LOWER FACE " ON UNIT  53 AT TIME STEP  1, STRESS PERIOD   1
 UBDSV4 SAVING "   RIVER LEAKAGE" ON UNIT  53 AT TIME STEP  1, STRESS PERIOD   1
 UBDSV3 SAVING "              ET" ON UNIT  53 AT TIME STEP  1, STRESS PERIOD   1
 UBDSV3 SAVING "        RECHARGE" ON UNIT  53 AT TIME STEP  1, STRESS PERIOD   1
1
              HEAD IN LAYER   1 AT END OF TIME STEP   1 IN STRESS PERIOD    1
  ---------------------------------------------------------------------------

            1           2           3           4           5           6           7           8           9          10
           11          12          13          14          15          16          17          18          19          20
           21          22          23          24          25          26          27          28          29          30
           31          32          33          34          35          36          37          38          39          40
           41          42          43          44          45          46          47          48          49          50
 ........................................................................................................................
   1  -1000.0     -1000.0     -1000.0     -1000.0     -1000.0     -1000.0     -1000.0     -1000.0     -1000.0     -1000.0    
      -1000.0     -1000.0     -1000.0     -1000.0     -1000.0     -1000.0     -1000.0     -1000.0     -1000.0     -1000.0    
      -1000.0     -1000.0     -1000.0     -1000.0     -1000.0     -1000.0     -1000.0     -1000.0     -1000.0     -1000.0    
      -1000.0     -1000.0     -1000.0     -1000.0     -1000.0     -1000.0     -1000.0     -1000.0     -1000.0     -1000.0    
      -1000.0     -1000.0     -1000.0     -1000.0     -1000.0     -1000.0     -1000.0     -1000.0     -1000.0       70.00    
   2  -1000.0     -1000.0     -1000.0     -1000.0     -1000.0       98.16       97.87       97.40       96.82       96.15    
        95.59       94.92       94.16       93.32       92.41       91.41       90.45       89.51       88.61       87.75    
        86.93       86.12       85.35       84.59       83.85       83.13       82.43       81.74       81.08       80.44    
        79.81       79.21       78.61       78.04       77.48       76.93       76.40       75.88       75.37       74.86    
        74.37       73.88       73.39       72.91       72.43       71.95       71.47       70.99       70.50       70.00    
   3  -1000.0     -1000.0     -1000.0     -1000.0       98.53       98.26       97.87       97.37       96.74       96.20    
        95.59       94.90       94.13       93.29       92.37       91.37       90.40       89.47       88.57       87.71    
        86.89       86.09       85.31       84.55       83.81       83.09       82.39       81.71       81.05       80.41    
        79.79       79.18       78.59       78.02       77.46       76.91       76.38       75.86       75.35       74.85    
        74.35       73.87       73.38       72.90       72.43       71.95       71.47       70.98       70.50       70.00    
   4  -1000.0     -1000.0     -1000.0       98.87       98.63       98.28       97.83       97.27       96.77       96.20    
        95.56       94.85       94.07       93.21       92.28       91.28       90.32       89.39       88.49       87.63    
        86.82       86.02       85.24       84.49       83.75       83.03       82.33       81.65       80.99       80.35    
        79.73       79.12       78.54       77.97       77.41       76.87       76.34       75.82       75.32       74.82    
        74.33       73.84       73.36       72.89       72.41       71.94       71.46       70.98       70.49       70.00    
   5  -1000.0     -1000.0       99.13       98.93       98.63       98.24       97.74       97.28       96.76       96.17    
        95.50       94.77       93.96       93.09       92.15       91.15       90.18       89.26       88.37       87.52    
        86.71       85.91       85.14       84.39       83.65       82.93       82.24       81.56       80.90       80.26    
        79.64       79.04       78.46       77.89       77.34       76.81       76.28       75.77       75.27       74.77    
        74.29       73.81       73.33       72.86       72.39       71.92       71.45       70.97       70.49       70.00    
   6  -1000.0       99.27       99.15       98.91       98.58       98.14       97.73       97.26       96.71       96.09    
        95.40       94.64       93.81       92.92       91.97       90.96       90.00       89.09       88.21       87.37    
        86.56       85.78       85.01       84.25       83.52       82.80       82.11       81.43       80.78       80.14    
        79.53       78.93       78.36       77.80       77.25       76.72       76.20       75.70       75.20       74.71    
        74.23       73.76       73.29       72.82       72.36       71.89       71.43       70.96       70.48       70.00    
   7  -1000.0       99.22       99.08       98.83       98.47       98.12       97.70       97.20       96.63       95.98    
        95.26       94.46       93.60       92.69       91.72       90.71       89.76       88.86       88.01       87.18    
        86.38       85.60       84.84       84.09       83.35       82.64       81.95       81.27       80.62       79.99    
        79.39       78.80       78.23       77.67       77.14       76.61       76.10       75.61       75.12       74.64    
        74.17       73.70       73.24       72.78       72.32       71.86       71.41       70.94       70.47       70.00    
   8  -1000.0       99.11       98.97       98.70       98.42       98.07       97.63       97.11       96.52       95.84    
        95.08       94.24       93.34       92.39       91.41       90.40       89.46       88.59       87.76       86.96    
        86.17       85.40       84.64       83.89       83.16       82.44       81.75       81.08       80.43       79.81    
        79.21       78.63       78.07       77.53       77.00       76.49       75.99       75.50       75.02       74.55    
        74.09       73.63       73.18       72.73       72.28       71.83       71.38       70.93       70.47       70.00    
   9  -1000.0       98.99       98.83       98.64       98.36       97.99       97.54       97.00       96.38       95.66    
        94.86       93.97       93.01       92.00       90.99       89.99       89.09       88.26       87.47       86.71    
        85.94       85.17       84.41       83.66       82.93       82.21       81.51       80.85       80.21       79.59    
        79.00       78.43       77.88       77.35       76.83       76.33       75.85       75.37       74.90       74.45    
        74.00       73.55       73.11       72.67       72.23       71.79       71.35       70.90       70.46       70.00    
  10  -1000.0       98.84       98.75       98.56       98.27       97.90       97.43       96.87       96.22       95.46    
        94.61       93.65       92.60       91.51       90.43       89.47       88.65       87.89       87.16       86.43    
        85.68       84.92       84.16       83.41       82.66       81.93       81.24       80.57       79.94       79.34    
        78.76       78.20       77.66       77.15       76.65       76.16       75.69       75.22       74.77       74.33    
        73.89       73.46       73.03       72.60       72.17       71.75       71.32       70.88       70.44       70.00    
  11  -1000.0       98.75       98.66       98.46       98.18       97.79       97.31       96.73       96.05       95.26    
        94.34       93.30       92.13       90.86       89.64       88.80       88.13       87.49       86.83       86.15    
        85.41       84.65       83.89       83.12       82.36       81.60       80.91       80.25       79.63       79.04    
        78.47       77.93       77.42       76.92       76.43       75.96       75.51       75.06       74.62       74.20    
        73.77       73.35       72.94       72.53       72.11       71.70       71.28       70.86       70.43       70.00    
  12  -1000.0       98.66       98.56       98.37       98.07       97.68       97.19       96.59       95.88       95.06    
        94.09       92.95       91.61       90.03       88.34       87.94       87.57       87.09       86.51       85.87    
        85.14       84.38       83.60       82.81       82.02       81.23       80.52       79.88       79.27       78.70    
        78.15       77.63       77.13       76.65       76.19       75.74       75.30       74.88       74.46       74.05    
        73.64       73.24       72.84       72.44       72.04       71.64       71.24       70.83       70.42       70.00    
  13  -1000.0       98.56       98.46       98.26       97.96       97.56       97.06       96.45       95.73       94.88    
        93.88       92.69       91.21       89.16       85.55       87.04       87.14       86.78       86.25       85.63    
        84.88       84.10       83.30       82.49       81.66       80.83       80.10       79.45       78.86       78.31    
        77.79       77.29       76.82       76.36       75.92       75.50       75.08       74.68       74.28       73.89    
        73.50       73.12       72.74       72.36       71.97       71.59       71.20       70.80       70.41       70.00    
  14  -1000.0       98.46       98.36       98.16       97.85       97.44       96.93       96.32       95.59       94.74    
        93.75       92.59       91.23       89.63       87.92       87.52       87.14       86.65       86.07       85.42    
        84.64       83.83       83.00       82.15       81.28       80.40       79.64       78.98       78.40       77.87    
        77.38       76.91       76.47       76.04       75.63       75.23       74.84       74.46       74.09       73.72    
        73.35       72.99       72.63       72.27       71.90       71.53       71.16       70.78       70.39       70.00    
  15  -1000.0       98.36       98.26       98.05       97.74       97.32       96.81       96.18       95.46       94.62    
        93.66       92.57       91.36       90.06       88.82       87.95       87.27       86.61       85.94       85.25    
        84.42       83.56       82.69       81.79       80.88       79.94       79.16       78.49       77.91       77.39    
        76.92       76.49       76.08       75.69       75.31       74.94       74.58       74.22       73.88       73.53    
        73.19       72.85       72.51       72.17       71.82       71.47       71.11       70.75       70.38       70.00    
  16  -1000.0       98.27       98.16       97.94       97.62       97.20       96.68       96.05       95.33       94.50    
        93.58       92.56       91.46       90.31       89.20       88.20       87.36       86.58       85.83       85.09    
        84.20       83.29       82.37       81.43       80.47       79.48       78.66       77.98       77.39       76.89    
        76.44       76.04       75.66       75.30       74.96       74.62       74.29       73.97       73.66       73.34    
        73.03       72.71       72.39       72.07       71.75       71.41       71.07       70.72       70.36       70.00    
  17  -1000.0       98.18       98.06       97.84       97.51       97.07       96.54       95.91       95.19       94.37    
        93.48       92.50       91.47       90.40       89.33       88.29       87.37       86.52       85.71       84.92    
        83.97       83.01       82.04       81.05       80.05       79.01       78.16       77.46       76.88       76.39    
        75.96       75.57       75.22       74.89       74.58       74.28       73.99       73.71       73.42       73.14    
        72.85       72.57       72.27       71.98       71.67       71.36       71.03       70.70       70.35       70.00    
  18  -1000.0       98.10       97.98       97.74       97.39       96.94       96.39       95.75       95.02       94.21    
        93.33       92.39       91.39       90.36       89.32       88.26       87.30       86.40       85.56       84.74    
        83.72       82.70       81.68       80.66       79.61       78.53       77.66       76.96       76.39       75.91    
        75.49       75.13       74.80       74.50       74.22       73.95       73.68       73.43       73.17       72.92    
        72.67       72.42       72.16       71.89       71.60       71.31       71.00       70.68       70.34       70.00    
  19  -1000.0       98.03       97.90       97.65       97.28       96.80       96.22       95.56       94.83       94.02    
        93.14       92.21       91.24       90.22       89.18       88.12       87.14       86.23       85.37       84.53    
        83.44       82.36       81.29       80.23       79.17       78.06       77.19       76.50       75.94       75.48    
        75.08       74.74       74.44       74.16       73.90       73.65       73.41       73.18       72.96       72.73    
        72.50       72.28       72.04       71.80       71.54       71.27       70.98       70.67       70.34       70.00    
  20  -1000.0       98.00       97.85       97.57       97.16       96.65       96.04       95.35       94.59       93.77    
        92.89       91.96       90.99       89.99       88.95       87.89       86.91       86.01       85.17       84.31    
        83.12       81.96       80.85       79.77       78.70       77.60       76.75       76.09       75.56       75.13    
        74.77       74.45       74.17       73.92       73.68       73.45       73.24       73.03       72.82       72.62    
        72.41       72.21       71.99       71.77       71.53       71.27       70.99       70.67       70.33       70.00    
  21  -1000.0       98.01       97.84       97.51       97.05       96.48       95.82       95.09       94.30       93.46    
        92.56       91.63       90.66       89.66       88.62       87.56       86.58       85.71       84.96       84.11    
        82.72       81.47       80.32       79.24       78.20       77.17       76.40       75.79       75.31       74.92    
        74.59       74.31       74.05       73.82       73.61       73.40       73.21       73.02       72.83       72.65    
        72.46       72.28       72.08       71.88       71.65       71.40       71.11       70.77       70.38       70.00    
  22  -1000.0       98.10       97.87       97.47       96.93       96.29       95.57       94.79       93.96       93.08    
        92.16       91.21       90.24       89.23       88.20       87.13       86.15       85.26       84.51       83.66    
        82.13       80.82       79.65       78.60       77.64       76.82       76.17       75.66       75.25       74.91    
        74.62       74.38       74.15       73.95       73.76       73.58       73.40       73.23       73.06       72.90    
        72.73       72.57       72.39       72.20       71.99       71.75       71.45       71.06       70.56       70.00    
  23  -1000.0       98.41       98.11       97.60       96.96       96.23       95.43       94.59       93.71       92.79    
        91.85       90.89       89.90       88.89       87.86       86.79       85.79       84.87       84.00       83.15    
        81.68       80.40       79.26       78.24       77.36       76.69       76.17       75.76       75.44       75.17    
        74.94       74.73       74.55       74.37       74.21       74.05       73.90       73.75       73.60       73.46    
        73.31       73.16       73.01       72.84       72.66       72.44       72.14       71.71       71.03       70.00    
  24  -1000.0       99.04       98.58       97.91       97.13       96.29       95.41       94.49       93.56       92.61    
        91.64       90.66       89.67       88.66       87.63       86.57       85.57       84.60       83.68       82.82    
        81.44       80.25       79.16       78.17       77.34       76.85       76.49       76.21       75.99       75.80    
        75.63       75.47       75.32       75.18       75.05       74.92       74.79       74.66       74.54       74.41    
        74.29       74.16       74.04       73.90       73.75       73.57       73.33       72.94       72.13       70.00    
  25  -1000.0       100.2       99.35       98.41       97.44       96.47       95.49       94.51       93.52       92.53    
        91.53       90.53       89.53       88.53       87.53       86.51       85.50       84.51       83.52       82.57    
        81.48       80.47       79.46       78.46       77.49       77.41       77.23       77.12       77.01       76.90    
        76.80       76.69       76.59       76.49       76.39       76.29       76.18       76.08       75.98       75.88    
        75.78       75.68       75.58       75.48       75.37       75.27       75.16       75.05       74.80       70.00    
  26  -1000.0       99.17       98.72       98.06       97.29       96.46       95.59       94.69       93.77       92.83    
        91.87       90.89       89.90       88.88       87.84       86.76       85.72       84.72       83.76       82.88    
        81.43       80.20       79.07       78.05       77.17       76.63       76.23       75.92       75.67       75.46    
        75.28       75.12       74.96       74.82       74.68       74.55       74.42       74.30       74.18       74.05    
        73.93       73.81       73.69       73.56       73.42       73.26       73.05       72.71       71.97       70.00    
  27  -1000.0       98.70       98.40       97.91       97.29       96.58       95.81       94.99       94.13       93.24    
        92.32       91.37       90.38       89.36       88.30       87.19       86.13       85.11       84.15       83.25    
        81.69       80.34       79.14       78.04       77.08       76.33       75.74       75.27       74.90       74.59    
        74.33       74.11       73.91       73.73       73.56       73.40       73.25       73.10       72.96       72.82    
        72.68       72.54       72.40       72.25       72.09       71.90       71.66       71.32       70.78       70.00    
  28  -1000.0       98.59       98.38       97.99       97.47       96.86       96.17       95.43       94.63       93.78    
        92.89       91.97       90.99       89.98       88.91       87.78       86.71       85.68       84.70       83.77    
        82.23       80.86       79.61       78.44       77.36       76.41       75.64       75.04       74.56       74.16    
        73.84       73.56       73.32       73.11       72.91       72.73       72.55       72.39       72.22       72.06    
        71.91       71.75       71.59       71.43       71.26       71.06       70.84       70.57       70.26       70.00    
  29  -1000.0       98.75       98.59       98.28       97.84       97.31       96.69       96.01       95.26       94.46    
        93.61       92.70       91.74       90.73       89.67       88.54       87.45       86.41       85.42       84.46    
        83.06       81.73       80.46       79.23       78.03       76.79       75.85       75.12       74.54       74.08    
        73.70       73.38       73.10       72.85       72.63       72.42       72.23       72.04       71.86       71.69    
        71.52       71.35       71.18       71.00       70.82       70.63       70.43       70.23       70.06       70.00    
  30  -1000.0       98.98       98.84       98.58       98.20       97.73       97.17       96.53       95.83       95.07    
        94.24       93.36       92.42       91.42       90.36       89.22       88.13       87.08       86.07       85.09    
        83.77       82.47       81.19       79.92       78.63       77.27       76.23       75.41       74.76       74.24    
        73.81       73.46       73.15       72.87       72.63       72.40       72.19       71.98       71.79       71.60    
        71.41       71.23       71.04       70.86       70.67       70.48       70.30       70.13       70.01       70.00    
  31  -1000.0       99.24       99.12       98.89       98.55       98.12       97.61       97.01       96.35       95.61    
        94.82       93.95       93.03       92.04       90.98       89.85       88.75       87.70       86.67       85.67    
        84.39       83.12       81.84       80.55       79.22       77.82       76.71       75.84       75.15       74.58    
        74.12       73.73       73.39       73.10       72.83       72.58       72.35       72.13       71.92       71.71    
        71.51       71.31       71.11       70.91       70.71       70.52       70.34       70.17       70.05       70.00    
  32  -1000.0       99.52       99.42       99.21       98.90       98.50       98.02       97.45       96.82       96.11    
        95.34       94.49       93.58       92.60       91.55       90.42       89.32       88.26       87.22       86.21    
        84.96       83.70       82.43       81.14       79.80       78.39       77.26       76.36       75.64       75.05    
        74.56       74.14       73.78       73.46       73.18       72.91       72.66       72.42       72.19       71.96    
        71.74       71.52       71.30       71.08       70.87       70.66       70.46       70.28       70.12       70.00    
  33  -1000.0       99.81       99.71       99.52       99.23       98.86       98.40       97.86       97.25       96.57    
        95.81       94.98       94.09       93.11       92.07       90.94       89.85       88.78       87.73       86.71    
        85.48       84.24       82.99       81.71       80.38       78.98       77.85       76.94       76.20       75.59    
        75.08       74.64       74.26       73.92       73.61       73.33       73.05       72.79       72.54       72.29    
        72.04       71.79       71.55       71.31       71.08       70.84       70.61       70.39       70.19       70.00    
  34  -1000.0       100.1      100.00       99.82       99.55       99.19       98.75       98.24       97.65       96.98    
        96.24       95.43       94.54       93.58       92.54       91.42       90.32       89.25       88.21       87.18    
        85.97       84.75       83.51       82.25       80.94       79.57       78.46       77.55       76.80       76.18    
        75.66       75.20       74.80       74.44       74.11       73.79       73.49       73.20       72.92       72.64    
        72.36       72.09       71.81       71.54       71.27       71.00       70.74       70.49       70.24       70.00    
  35  -1000.0       100.4       100.3       100.1       99.85       99.51       99.08       98.59       98.01       97.36    
        96.64       95.84       94.96       94.01       92.97       91.86       90.76       89.69       88.64       87.61    
        86.42       85.22       84.01       82.77       81.49       80.16       79.07       78.17       77.43       76.80    
        76.26       75.79       75.37       74.98       74.62       74.28       73.95       73.62       73.30       72.98    
        72.67       72.36       72.05       71.75       71.45       71.15       70.86       70.57       70.28       70.00    
  36  -1000.0       100.6       100.5       100.4       100.1       99.80       99.39       98.90       98.34       97.71    
        96.99       96.20       95.34       94.39       93.37       92.25       91.16       90.09       89.04       88.01    
        86.85       85.67       84.48       83.27       82.03       80.74       79.68       78.79       78.05       77.42    
        76.87       76.38       75.93       75.52       75.13       74.74       74.37       74.01       73.65       73.30    
        72.96       72.61       72.28       71.94       71.61       71.29       70.96       70.64       70.32       70.00    
  37  -1000.0       100.9       100.8       100.6       100.4       100.1       99.67       99.19       98.64       98.02    
        97.32       96.54       95.68       94.74       93.72       92.62       91.53       90.46       89.42       88.38    
        87.24       86.09       84.93       83.75       82.54       81.30       80.27       79.40       78.67       78.03    
        77.46       76.95       76.48       76.03       75.60       75.18       74.77       74.37       73.98       73.60    
        73.22       72.85       72.48       72.12       71.77       71.41       71.06       70.71       70.35       70.00    
  38  -1000.0       101.1       101.0       100.9       100.6       100.3       99.92       99.46       98.92       98.30    
        97.61       96.84       95.99       95.06       94.05       92.95       91.86       90.80       89.75       88.73    
        87.60       86.48       85.34       84.20       83.03       81.85       80.85       80.00       79.26       78.62    
        78.03       77.50       76.99       76.50       76.03       75.57       75.13       74.70       74.28       73.87    
        73.46       73.07       72.67       72.29       71.90       71.52       71.14       70.76       70.38       70.00    
  39  -1000.0       101.3       101.2       101.1       100.8       100.5       100.1       99.69       99.16       98.55    
        97.87       97.10       96.26       95.34       94.33       93.24       92.16       91.11       90.06       89.04    
        87.94       86.84       85.74       84.62       83.50       82.36       81.39       80.56       79.83       79.17    
        78.57       78.00       77.45       76.93       76.42       75.93       75.46       75.00       74.55       74.12    
        73.69       73.26       72.85       72.44       72.03       71.63       71.22       70.82       70.41       70.00    
  40  -1000.0       101.5       101.4       101.2       101.0       100.7       100.3       99.89       99.37       98.77    
        98.10       97.34       96.51       95.59       94.59       93.51       92.44       91.38       90.35       89.33    
        88.25       87.17       86.10       85.02       83.93       82.85       81.91       81.09       80.35       79.68    
        79.05       78.44       77.86       77.31       76.78       76.26       75.76       75.28       74.80       74.34    
        73.89       73.44       73.01       72.57       72.15       71.72       71.29       70.87       70.44       70.00    
  41  -1000.0       101.6       101.6       101.4       101.2       100.9       100.5       100.1       99.55       98.96    
        98.30       97.55       96.72       95.82       94.82       93.74       92.68       91.63       90.60       89.58    
        88.53       87.48       86.43       85.38       84.34       83.29       82.38       81.57       80.83       80.13    
        79.47       78.84       78.23       77.65       77.09       76.55       76.03       75.52       75.03       74.54    
        74.07       73.61       73.15       72.70       72.25       71.80       71.36       70.91       70.46       70.00    
  42  -1000.0       101.8       101.7       101.5       101.3       101.0       100.7       100.2       99.71       99.13    
        98.47       97.73       96.91       96.01       95.02       93.95       92.89       91.84       90.82       89.81    
        88.78       87.75       86.72       85.71       84.70       83.70       82.81       82.00       81.24       80.52    
        79.84       79.18       78.56       77.95       77.37       76.81       76.27       75.74       75.23       74.72    
        74.23       73.75       73.28       72.81       72.34       71.88       71.41       70.95       70.48       70.00    
  43  -1000.0       102.0       101.9       101.7       101.4       101.1       100.8       100.3       99.84       99.26    
        98.61       97.88       97.07       96.17       95.19       94.12       93.07       92.03       91.01       90.01    
        88.99       87.98       86.98       85.99       85.02       84.06       83.19       82.37       81.60       80.86    
        80.16       79.48       78.84       78.21       77.61       77.04       76.47       75.93       75.40       74.88    
        74.37       73.88       73.39       72.90       72.42       71.94       71.46       70.98       70.49       70.00    
  44  -1000.0       102.1       102.0       101.8       101.5       101.2       100.9       100.4       99.93       99.36    
        98.72       98.00       97.19       96.31       95.33       94.27       93.23       92.19       91.18       90.18    
        89.18       88.19       87.21       86.24       85.29       84.37       83.50       82.68       81.89       81.14    
        80.42       79.73       79.07       78.43       77.82       77.23       76.65       76.09       75.55       75.02    
        74.50       73.98       73.48       72.98       72.49       72.00       71.50       71.01       70.51       70.00    
  45  -1000.0       102.2       102.1       101.9       101.6       101.3       100.9       100.5      100.00       99.44    
        98.80       98.09       97.30       96.42       95.45       94.39       93.35       92.33       91.32       90.32    
        89.33       88.36       87.39       86.44       85.51       84.61       83.75       82.92       82.13       81.37    
        80.64       79.94       79.27       78.62       77.99       77.39       76.80       76.23       75.67       75.13    
        74.60       74.07       73.56       73.05       72.54       72.04       71.54       71.03       70.52       70.00    
  46  -1000.0     -1000.0       102.1       102.0       101.7       101.4       100.9       100.5       100.0       99.48    
        98.86       98.16       97.37       96.50       95.54       94.49       93.45       92.43       91.42       90.43    
        89.46       88.49       87.54       86.60       85.69       84.80       83.94       83.11       82.31       81.55    
        80.81       80.10       79.42       78.76       78.13       77.51       76.91       76.33       75.77       75.22    
        74.68       74.15       73.62       73.10       72.59       72.08       71.57       71.05       70.53       70.00    
  47  -1000.0     -1000.0     -1000.0       101.9       101.7       101.4       101.0       100.5       100.0       99.50    
        98.89       98.20       97.43       96.56       95.61       94.56       93.53       92.51       91.51       90.52    
        89.55       88.59       87.65       86.72       85.82       84.93       84.08       83.25       82.45       81.68    
        80.94       80.23       79.54       78.87       78.23       77.61       77.00       76.42       75.84       75.28    
        74.74       74.20       73.67       73.15       72.62       72.11       71.59       71.06       70.54       70.00    
  48  -1000.0     -1000.0     -1000.0     -1000.0       101.6       101.4       101.0       100.6       100.0       99.48    
        98.90       98.22       97.46       96.60       95.65       94.61       93.58       92.56       91.56       90.58    
        89.61       88.66       87.72       86.80       85.90       85.02       84.17       83.34       82.54       81.77    
        81.02       80.31       79.61       78.94       78.30       77.67       77.06       76.47       75.89       75.33    
        74.78       74.24       73.70       73.17       72.65       72.12       71.60       71.07       70.54       70.00    
  49  -1000.0     -1000.0     -1000.0     -1000.0     -1000.0       101.3       101.1       100.6       100.1       99.43    
        98.89       98.23       97.47       96.62       95.67       94.63       93.60       92.59       91.59       90.60    
        89.64       88.69       87.76       86.84       85.94       85.06       84.21       83.38       82.58       81.81    
        81.07       80.35       79.65       78.98       78.33       77.70       77.09       76.50       75.92       75.35    
        74.80       74.25       73.72       73.19       72.66       72.13       71.61       71.08       70.54       70.00    
  50  -1000.0     -1000.0     -1000.0     -1000.0     -1000.0     -1000.0     -1000.0     -1000.0     -1000.0     -1000.0    
      -1000.0     -1000.0     -1000.0     -1000.0     -1000.0     -1000.0     -1000.0     -1000.0     -1000.0     -1000.0    
      -1000.0     -1000.0     -1000.0     -1000.0     -1000.0     -1000.0     -1000.0     -1000.0     -1000.0     -1000.0    
      -1000.0     -1000.0     -1000.0     -1000.0     -1000.0     -1000.0     -1000.0     -1000.0     -1000.0     -1000.0    
      -1000.0     -1000.0     -1000.0     -1000.0     -1000.0     -1000.0     -1000.0     -1000.0     -1000.0       70.00    
1
              HEAD IN LAYER   2 AT END OF TIME STEP   1 IN STRESS PERIOD    1
  ---------------------------------------------------------------------------

            1           2           3           4           5           6           7           8           9          10
           11          12          13          14          15          16          17          18          19          20
           21          22          23          24          25          26          27          28          29          30
           31          32          33          34          35          36          37          38          39          40
           41          42          43          44          45          46          47          48          49          50
 ........................................................................................................................
   1  -1000.0     -1000.0     -1000.0     -1000.0     -1000.0     -1000.0     -1000.0     -1000.0     -1000.0     -1000.0    
      -1000.0     -1000.0     -1000.0     -1000.0     -1000.0     -1000.0     -1000.0     -1000.0     -1000.0     -1000.0    
      -1000.0     -1000.0     -1000.0     -1000.0     -1000.0     -1000.0     -1000.0     -1000.0     -1000.0     -1000.0    
      -1000.0     -1000.0     -1000.0     -1000.0     -1000.0     -1000.0     -1000.0     -1000.0     -1000.0     -1000.0    
      -1000.0     -1000.0     -1000.0     -1000.0     -1000.0     -1000.0     -1000.0     -1000.0     -1000.0       70.00    
   2  -1000.0     -1000.0     -1000.0     -1000.0     -1000.0     -1000.0     -1000.0       97.40       96.82       96.14    
        95.59       94.92       94.16       93.32       92.41       91.41       90.45       89.51       88.61       87.75    
        86.89       86.07       85.28       84.52       83.78       83.06       82.36       81.69       81.03       80.39    
        79.76       79.16       78.57       77.99       77.43       76.88       76.34       75.81       75.30       74.79    
        74.29       73.80       73.32       72.84       72.36       71.89       71.41       70.94       70.47       70.00    
   3  -1000.0     -1000.0     -1000.0     -1000.0     -1000.0     -1000.0       97.87       97.37       96.74       96.20    
        95.59       94.90       94.13       93.29       92.37       91.37       90.40       89.47       88.57       87.71    
        86.86       86.04       85.25       84.49       83.75       83.03       82.34       81.66       81.00       80.37    
        79.74       79.14       78.55       77.97       77.41       76.86       76.33       75.80       75.29       74.78    
        74.28       73.79       73.31       72.83       72.35       71.88       71.41       70.94       70.47       70.00    
   4  -1000.0     -1000.0     -1000.0     -1000.0     -1000.0       98.27       97.83       97.27       96.77       96.20    
        95.56       94.85       94.07       93.21       92.28       91.28       90.32       89.39       88.49       87.63    
        86.79       85.97       85.19       84.43       83.69       82.98       82.29       81.61       80.96       80.32    
        79.70       79.10       78.51       77.94       77.38       76.83       76.30       75.77       75.26       74.76    
        74.26       73.77       73.29       72.81       72.34       71.87       71.40       70.93       70.47       70.00    
   5  -1000.0     -1000.0     -1000.0     -1000.0       98.63       98.24       97.74       97.28       96.76       96.17    
        95.50       94.77       93.96       93.09       92.15       91.15       90.18       89.26       88.37       87.52    
        86.68       85.88       85.10       84.34       83.61       82.90       82.21       81.54       80.89       80.25    
        79.64       79.04       78.45       77.88       77.32       76.78       76.25       75.73       75.22       74.72    
        74.23       73.74       73.27       72.79       72.32       71.86       71.39       70.93       70.46       70.00    
   6  -1000.0     -1000.0     -1000.0       98.91       98.58       98.14       97.73       97.26       96.71       96.09    
        95.40       94.64       93.81       92.92       91.97       90.96       90.00       89.09       88.21       87.37    
        86.54       85.75       84.98       84.23       83.50       82.80       82.11       81.45       80.80       80.17    
        79.55       78.95       78.37       77.81       77.25       76.72       76.19       75.67       75.17       74.67    
        74.19       73.71       73.23       72.76       72.30       71.84       71.38       70.92       70.46       70.00    
   7  -1000.0     -1000.0       99.08       98.83       98.46       98.12       97.70       97.20       96.63       95.98    
        95.26       94.46       93.60       92.69       91.72       90.71       89.76       88.86       88.01       87.18    
        86.37       85.59       84.83       84.09       83.37       82.67       81.99       81.33       80.68       80.06    
        79.45       78.85       78.28       77.72       77.17       76.63       76.11       75.60       75.10       74.61    
        74.13       73.66       73.19       72.73       72.27       71.81       71.36       70.91       70.45       70.00    
   8  -1000.0       99.11       98.97       98.70       98.42       98.07       97.63       97.11       96.52       95.84    
        95.08       94.24       93.34       92.39       91.41       90.40       89.46       88.59       87.76       86.96    
        86.17       85.40       84.65       83.92       83.21       82.52       81.84       81.18       80.54       79.92    
        79.32       78.73       78.16       77.61       77.06       76.54       76.02       75.52       75.03       74.54    
        74.07       73.60       73.14       72.68       72.23       71.78       71.34       70.89       70.45       70.00    
   9  -1000.0       98.99       98.83       98.64       98.36       97.99       97.54       97.00       96.38       95.66    
        94.86       93.97       93.01       92.00       90.99       89.99       89.09       88.26       87.47       86.71    
        85.94       85.19       84.46       83.74       83.03       82.34       81.67       81.02       80.39       79.77    
        79.17       78.59       78.03       77.48       76.94       76.42       75.92       75.42       74.94       74.46    
        73.99       73.53       73.08       72.64       72.19       71.75       71.31       70.88       70.44       70.00    
  10  -1000.0       98.84       98.75       98.56       98.27       97.90       97.43       96.87       96.22       95.46    
        94.61       93.65       92.60       91.51       90.43       89.47       88.65       87.89       87.16       86.43    
        85.69       84.97       84.25       83.53       82.83       82.15       81.48       80.83       80.20       79.60    
        79.00       78.43       77.87       77.33       76.81       76.30       75.80       75.31       74.83       74.37    
        73.91       73.46       73.02       72.58       72.15       71.71       71.29       70.86       70.43       70.00    
  11  -1000.0       98.75       98.66       98.46       98.18       97.79       97.31       96.73       96.05       95.26    
        94.34       93.30       92.12       90.86       89.64       88.80       88.13       87.49       86.83       86.15    
        85.44       84.73       84.02       83.31       82.62       81.93       81.27       80.63       80.00       79.40    
        78.82       78.25       77.70       77.17       76.65       76.15       75.66       75.18       74.72       74.26    
        73.81       73.38       72.94       72.52       72.09       71.67       71.25       70.84       70.42       70.00    
  12  -1000.0       98.66       98.56       98.37       98.07       97.68       97.19       96.59       95.88       95.05    
        94.09       92.95       91.61       90.03       88.34       87.94       87.57       87.09       86.51       85.87    
        85.19       84.49       83.79       83.08       82.39       81.70       81.04       80.40       79.78       79.19    
        78.61       78.06       77.52       76.99       76.49       75.99       75.51       75.05       74.59       74.15    
        73.71       73.28       72.86       72.45       72.04       71.63       71.22       70.81       70.41       70.00    
  13  -1000.0       98.56       98.46       98.26       97.96       97.56       97.06       96.45       95.73       94.88    
        93.88       92.69       91.21       89.16       85.56       87.04       87.14       86.78       86.25       85.63    
        84.95       84.26       83.55       82.85       82.15       81.46       80.80       80.16       79.55       78.96    
        78.39       77.85       77.32       76.80       76.30       75.82       75.35       74.90       74.45       74.02    
        73.60       73.18       72.78       72.38       71.98       71.58       71.19       70.79       70.40       70.00    
  14  -1000.0       98.46       98.36       98.16       97.85       97.44       96.93       96.32       95.59       94.74    
        93.75       92.59       91.23       89.63       87.92       87.52       87.14       86.65       86.07       85.42    
        84.73       84.03       83.32       82.61       81.90       81.21       80.54       79.91       79.30       78.72    
        78.16       77.62       77.10       76.60       76.11       75.64       75.18       74.73       74.30       73.88    
        73.48       73.08       72.69       72.30       71.92       71.53       71.15       70.77       70.38       70.00    
  15  -1000.0       98.36       98.26       98.05       97.74       97.32       96.81       96.18       95.46       94.62    
        93.66       92.57       91.36       90.06       88.82       87.95       87.27       86.61       85.94       85.25    
        84.53       83.81       83.09       82.36       81.65       80.95       80.28       79.65       79.04       78.47    
        77.92       77.39       76.88       76.39       75.91       75.45       75.00       74.57       74.15       73.74    
        73.35       72.97       72.59       72.22       71.86       71.49       71.12       70.75       70.37       70.00    
  16  -1000.0       98.27       98.16       97.94       97.62       97.20       96.68       96.05       95.33       94.50    
        93.58       92.56       91.46       90.31       89.20       88.20       87.36       86.58       85.83       85.09    
        84.34       83.59       82.85       82.12       81.40       80.70       80.02       79.39       78.79       78.22    
        77.67       77.16       76.66       76.17       75.70       75.25       74.81       74.39       73.99       73.60    
        73.22       72.86       72.50       72.15       71.80       71.44       71.09       70.73       70.36       70.00    
  17  -1000.0       98.18       98.06       97.84       97.51       97.07       96.54       95.91       95.19       94.37    
        93.48       92.50       91.47       90.40       89.33       88.29       87.37       86.52       85.71       84.92    
        84.14       83.38       82.62       81.88       81.15       80.44       79.77       79.13       78.54       77.97    
        77.44       76.93       76.44       75.96       75.50       75.06       74.63       74.22       73.82       73.45    
        73.09       72.75       72.41       72.08       71.74       71.40       71.06       70.71       70.36       70.00    
  18  -1000.0       98.10       97.98       97.74       97.39       96.94       96.39       95.75       95.02       94.21    
        93.33       92.39       91.39       90.36       89.32       88.26       87.30       86.40       85.56       84.74    
        83.94       83.15       82.39       81.63       80.90       80.19       79.52       78.89       78.30       77.75    
        77.22       76.72       76.24       75.77       75.32       74.88       74.45       74.05       73.66       73.31    
        72.97       72.65       72.33       72.02       71.70       71.37       71.04       70.70       70.35       70.00    
  19  -1000.0       98.03       97.90       97.65       97.28       96.80       96.22       95.56       94.83       94.02    
        93.14       92.21       91.24       90.22       89.18       88.12       87.14       86.23       85.37       84.53    
        83.72       82.92       82.15       81.39       80.66       79.96       79.30       78.68       78.10       77.55    
        77.04       76.54       76.07       75.61       75.16       74.72       74.30       73.89       73.52       73.18    
        72.87       72.57       72.28       71.98       71.68       71.36       71.04       70.70       70.35       70.00    
  20  -1000.0       98.00       97.85       97.57       97.16       96.65       96.04       95.35       94.59       93.77    
        92.89       91.96       90.99       89.99       88.95       87.89       86.91       86.01       85.17       84.31    
        83.48       82.67       81.90       81.16       80.43       79.74       79.10       78.49       77.93       77.40    
        76.89       76.41       75.94       75.49       75.04       74.60       74.18       73.77       73.40       73.09    
        72.80       72.52       72.25       71.97       71.68       71.38       71.05       70.71       70.36       70.00    
  21  -1000.0       98.01       97.84       97.51       97.05       96.48       95.82       95.09       94.30       93.46    
        92.56       91.63       90.66       89.66       88.62       87.56       86.58       85.71       84.96       84.11    
        83.22       82.42       81.66       80.93       80.23       79.56       78.93       78.35       77.81       77.29    
        76.80       76.33       75.87       75.43       74.98       74.55       74.12       73.71       73.33       73.04    
        72.78       72.53       72.27       72.01       71.73       71.43       71.10       70.75       70.38       70.00    
  22  -1000.0       98.10       97.87       97.47       96.93       96.29       95.57       94.79       93.96       93.08    
        92.16       91.22       90.24       89.23       88.20       87.13       86.15       85.26       84.51       83.66    
        82.89       82.15       81.43       80.73       80.06       79.42       78.82       78.26       77.74       77.24    
        76.77       76.31       75.86       75.43       74.99       74.56       74.13       73.71       73.33       73.06    
        72.83       72.59       72.35       72.09       71.82       71.52       71.19       70.82       70.42       70.00    
  23  -1000.0       98.41       98.11       97.60       96.96       96.23       95.43       94.59       93.71       92.79    
        91.85       90.89       89.90       88.89       87.86       86.79       85.79       84.87       84.00       83.15    
        82.56       81.92       81.25       80.58       79.94       79.33       78.76       78.23       77.73       77.25    
        76.79       76.34       75.91       75.48       75.06       74.64       74.23       73.83       73.48       73.20    
        72.95       72.72       72.48       72.22       71.95       71.65       71.31       70.93       70.49       70.00    
  24  -1000.0       99.04       98.58       97.91       97.13       96.29       95.41       94.49       93.56       92.61    
        91.64       90.66       89.67       88.66       87.63       86.57       85.57       84.60       83.68       82.82    
        82.34       81.77       81.15       80.51       79.89       79.31       78.76       78.24       77.76       77.29    
        76.84       76.41       75.99       75.57       75.16       74.76       74.37       73.99       73.65       73.37    
        73.11       72.86       72.62       72.36       72.09       71.78       71.44       71.05       70.57       70.00    
  25  -1000.0       100.2       99.34       98.41       97.44       96.47       95.49       94.51       93.52       92.53    
        91.53       90.53       89.54       88.53       87.53       86.51       85.51       84.51       83.52       82.57    
        82.26       81.74       81.14       80.51       79.90       79.32       78.78       78.27       77.79       77.33    
        76.88       76.46       76.04       75.63       75.23       74.84       74.47       74.11       73.78       73.49    
        73.22       72.96       72.70       72.44       72.16       71.86       71.52       71.12       70.64       70.00    
  26  -1000.0       99.17       98.72       98.06       97.29       96.46       95.59       94.69       93.77       92.83    
        91.87       90.89       89.90       88.88       87.84       86.76       85.72       84.72       83.76       82.88    
        82.41       81.84       81.22       80.57       79.94       79.34       78.77       78.24       77.75       77.27    
        76.82       76.39       75.97       75.56       75.16       74.78       74.41       74.06       73.74       73.43    
        73.15       72.88       72.61       72.34       72.05       71.75       71.41       71.02       70.55       70.00    
  27  -1000.0       98.70       98.40       97.91       97.29       96.58       95.81       94.99       94.13       93.24    
        92.32       91.37       90.38       89.36       88.30       87.19       86.13       85.11       84.15       83.25    
        82.70       82.07       81.40       80.72       80.05       79.41       78.80       78.24       77.72       77.22    
        76.75       76.31       75.88       75.47       75.07       74.69       74.32       73.97       73.64       73.33    
        73.03       72.75       72.47       72.18       71.89       71.58       71.25       70.87       70.46       70.00    
  28  -1000.0       98.59       98.38       97.99       97.47       96.86       96.17       95.43       94.63       93.78    
        92.90       91.97       90.99       89.98       88.91       87.78       86.71       85.68       84.70       83.77    
        83.13       82.42       81.69       80.96       80.24       79.55       78.90       78.30       77.74       77.22    
        76.73       76.27       75.83       75.41       75.00       74.62       74.25       73.89       73.56       73.23    
        72.93       72.63       72.33       72.04       71.74       71.43       71.11       70.76       70.39       70.00    
  29  -1000.0       98.75       98.59       98.27       97.84       97.31       96.69       96.01       95.26       94.46    
        93.60       92.70       91.74       90.73       89.67       88.54       87.45       86.41       85.42       84.46    
        83.66       82.86       82.07       81.28       80.51       79.77       79.08       78.44       77.84       77.29    
        76.78       76.30       75.84       75.41       75.00       74.60       74.23       73.87       73.52       73.19    
        72.87       72.56       72.25       71.95       71.64       71.33       71.01       70.68       70.34       70.00    
  30  -1000.0       98.98       98.84       98.58       98.20       97.73       97.16       96.53       95.83       95.06    
        94.24       93.36       92.42       91.42       90.35       89.22       88.13       87.08       86.07       85.09    
        84.20       83.34       82.49       81.65       80.84       80.05       79.32       78.64       78.01       77.43    
        76.90       76.40       75.93       75.48       75.06       74.66       74.27       73.90       73.54       73.20    
        72.87       72.54       72.22       71.91       71.59       71.28       70.96       70.64       70.32       70.00    
  31  -1000.0       99.24       99.12       98.89       98.55       98.12       97.61       97.01       96.35       95.61    
        94.82       93.95       93.03       92.04       90.98       89.85       88.75       87.70       86.67       85.67    
        84.73       83.82       82.93       82.05       81.20       80.38       79.61       78.90       78.24       77.64    
        77.08       76.57       76.08       75.62       75.19       74.77       74.37       73.99       73.62       73.26    
        72.92       72.58       72.25       71.92       71.60       71.27       70.95       70.63       70.31       70.00    
  32  -1000.0       99.52       99.42       99.21       98.90       98.50       98.02       97.45       96.82       96.11    
        95.34       94.49       93.58       92.60       91.55       90.42       89.32       88.26       87.22       86.21    
        85.24       84.29       83.37       82.46       81.58       80.73       79.93       79.20       78.52       77.90    
        77.32       76.79       76.29       75.81       75.36       74.94       74.52       74.13       73.74       73.37    
        73.01       72.66       72.31       71.97       71.64       71.30       70.97       70.65       70.32       70.00    
  33  -1000.0       99.81       99.71       99.52       99.23       98.86       98.40       97.86       97.25       96.57    
        95.81       94.98       94.09       93.11       92.07       90.94       89.85       88.78       87.73       86.71    
        85.72       84.75       83.80       82.87       81.97       81.10       80.29       79.53       78.84       78.20    
        77.61       77.05       76.54       76.05       75.58       75.14       74.71       74.30       73.91       73.52    
        73.14       72.77       72.41       72.06       71.71       71.36       71.01       70.67       70.34       70.00    
  34  -1000.0       100.1      100.00       99.82       99.55       99.19       98.75       98.24       97.65       96.98    
        96.24       95.43       94.54       93.58       92.54       91.42       90.32       89.25       88.21       87.18    
        86.17       85.18       84.22       83.28       82.37       81.48       80.66       79.89       79.18       78.52    
        77.91       77.35       76.82       76.31       75.83       75.37       74.93       74.50       74.09       73.69    
        73.29       72.91       72.53       72.15       71.79       71.42       71.06       70.71       70.35       70.00    
  35  -1000.0       100.4       100.3       100.1       99.84       99.50       99.08       98.59       98.01       97.36    
        96.64       95.84       94.96       94.01       92.97       91.86       90.76       89.69       88.64       87.61    
        86.59       85.60       84.63       83.68       82.76       81.87       81.03       80.25       79.53       78.86    
        78.24       77.66       77.11       76.59       76.10       75.62       75.16       74.72       74.28       73.86    
        73.45       73.05       72.65       72.26       71.88       71.49       71.12       70.74       70.37       70.00    
  36  -1000.0       100.6       100.5       100.4       100.1       99.80       99.39       98.90       98.34       97.71    
        96.99       96.20       95.34       94.39       93.37       92.25       91.16       90.09       89.04       88.01    
        86.99       85.99       85.02       84.06       83.14       82.25       81.40       80.62       79.89       79.21    
        78.58       77.98       77.42       76.88       76.37       75.87       75.39       74.93       74.48       74.04    
        73.61       73.19       72.78       72.37       71.97       71.57       71.17       70.78       70.39       70.00    
  37  -1000.0       100.9       100.8       100.6       100.4       100.1       99.67       99.19       98.64       98.02    
        97.32       96.54       95.68       94.74       93.72       92.62       91.53       90.46       89.42       88.38    
        87.36       86.36       85.39       84.43       83.51       82.61       81.77       80.98       80.24       79.55    
        78.91       78.30       77.72       77.16       76.63       76.12       75.63       75.14       74.68       74.22    
        73.77       73.33       72.90       72.47       72.05       71.64       71.23       70.82       70.41       70.00    
  38  -1000.0       101.1       101.0       100.9       100.6       100.3       99.92       99.46       98.92       98.30    
        97.61       96.84       95.99       95.06       94.04       92.94       91.86       90.80       89.75       88.73    
        87.70       86.71       85.73       84.78       83.86       82.97       82.12       81.33       80.59       79.89    
        79.23       78.60       78.01       77.44       76.89       76.36       75.85       75.35       74.86       74.39    
        73.92       73.47       73.02       72.58       72.14       71.71       71.28       70.85       70.43       70.00    
  39  -1000.0       101.3       101.2       101.1       100.8       100.5       100.1       99.69       99.16       98.55    
        97.87       97.10       96.26       95.34       94.33       93.24       92.16       91.11       90.06       89.04    
        88.02       87.03       86.05       85.11       84.19       83.30       82.46       81.66       80.91       80.21    
        79.54       78.90       78.29       77.70       77.13       76.59       76.06       75.54       75.04       74.55    
        74.07       73.59       73.13       72.67       72.22       71.77       71.33       70.88       70.44       70.00    
  40  -1000.0       101.5       101.4       101.2       101.0       100.7       100.3       99.89       99.37       98.77    
        98.10       97.34       96.51       95.59       94.59       93.51       92.44       91.38       90.35       89.33    
        88.31       87.32       86.35       85.41       84.49       83.61       82.77       81.97       81.22       80.50    
        79.82       79.17       78.54       77.94       77.36       76.80       76.25       75.72       75.20       74.70    
        74.20       73.71       73.23       72.76       72.29       71.83       71.37       70.91       70.46       70.00    
  41  -1000.0       101.6       101.6       101.4       101.2       100.9       100.5       100.1       99.55       98.96    
        98.29       97.55       96.72       95.81       94.82       93.74       92.68       91.63       90.60       89.58    
        88.57       87.58       86.62       85.69       84.78       83.90       83.06       82.26       81.50       80.78    
        80.08       79.42       78.78       78.16       77.57       76.99       76.43       75.88       75.35       74.83    
        74.32       73.82       73.33       72.84       72.36       71.89       71.41       70.94       70.47       70.00    
  42  -1000.0       101.8       101.7       101.5       101.3       101.0       100.7       100.2       99.71       99.13    
        98.47       97.73       96.91       96.01       95.02       93.95       92.89       91.84       90.82       89.81    
        88.80       87.82       86.87       85.94       85.03       84.16       83.32       82.52       81.75       81.02    
        80.32       79.64       78.99       78.36       77.75       77.16       76.59       76.03       75.49       74.95    
        74.43       73.92       73.42       72.92       72.42       71.94       71.45       70.97       70.48       70.00    
  43  -1000.0       102.0       101.9       101.7       101.4       101.1       100.8       100.3       99.84       99.26    
        98.61       97.88       97.07       96.17       95.19       94.12       93.07       92.03       91.01       90.01    
        89.01       88.03       87.08       86.15       85.26       84.39       83.55       82.75       81.98       81.24    
        80.52       79.84       79.17       78.54       77.92       77.31       76.73       76.16       75.61       75.06    
        74.53       74.01       73.49       72.98       72.48       71.98       71.48       70.99       70.49       70.00    
  44  -1000.0     -1000.0       102.0       101.8       101.5       101.2       100.9       100.4       99.93       99.36    
        98.72       98.00       97.19       96.31       95.33       94.27       93.23       92.19       91.18       90.18    
        89.18       88.21       87.26       86.34       85.45       84.58       83.75       82.94       82.17       81.42    
        80.70       80.01       79.33       78.69       78.06       77.45       76.85       76.27       75.71       75.16    
        74.61       74.08       73.56       73.04       72.53       72.02       71.51       71.01       70.50       70.00    
  45  -1000.0     -1000.0     -1000.0       101.9       101.6       101.3       100.9       100.5      100.00       99.44    
        98.80       98.09       97.30       96.42       95.45       94.39       93.35       92.33       91.32       90.32    
        89.33       88.36       87.42       86.50       85.61       84.75       83.91       83.10       82.32       81.57    
        80.85       80.15       79.47       78.81       78.17       77.56       76.95       76.37       75.79       75.23    
        74.68       74.14       73.61       73.09       72.57       72.05       71.53       71.02       70.51       70.00    
  46  -1000.0     -1000.0     -1000.0     -1000.0       101.7       101.4       100.9       100.5       100.0       99.48    
        98.86       98.16       97.37       96.50       95.54       94.49       93.45       92.43       91.42       90.43    
        89.44       88.48       87.54       86.63       85.74       84.88       84.04       83.23       82.45       81.70    
        80.97       80.26       79.57       78.91       78.27       77.64       77.04       76.44       75.86       75.30    
        74.74       74.19       73.65       73.12       72.60       72.07       71.55       71.04       70.52       70.00    
  47  -1000.0     -1000.0     -1000.0     -1000.0     -1000.0       101.4       101.0       100.5       100.0       99.50    
        98.89       98.20       97.43       96.56       95.61       94.56       93.53       92.51       91.51       90.52    
        89.53       88.57       87.63       86.72       85.83       84.97       84.14       83.33       82.55       81.79    
        81.05       80.34       79.66       78.99       78.34       77.71       77.10       76.50       75.91       75.34    
        74.78       74.23       73.69       73.15       72.62       72.09       71.57       71.05       70.52       70.00    
  48  -1000.0     -1000.0     -1000.0     -1000.0     -1000.0     -1000.0       101.0       100.6       100.0       99.48    
        98.90       98.22       97.46       96.60       95.65       94.61       93.58       92.56       91.56       90.58    
        89.59       88.63       87.69       86.78       85.90       85.04       84.20       83.39       82.61       81.85    
        81.11       80.40       79.71       79.04       78.39       77.75       77.14       76.54       75.95       75.37    
        74.81       74.26       73.71       73.17       72.64       72.11       71.58       71.05       70.53       70.00    
  49  -1000.0     -1000.0     -1000.0     -1000.0     -1000.0     -1000.0     -1000.0       100.6       100.1       99.43    
        98.89       98.23       97.47       96.62       95.67       94.63       93.60       92.59       91.59       90.60    
        89.62       88.66       87.73       86.82       85.93       85.07       84.24       83.43       82.64       81.88    
        81.14       80.43       79.74       79.06       78.41       77.78       77.16       76.56       75.97       75.39    
        74.83       74.27       73.72       73.18       72.64       72.11       71.58       71.05       70.53       70.00    
  50  -1000.0     -1000.0     -1000.0     -1000.0     -1000.0     -1000.0     -1000.0     -1000.0     -1000.0     -1000.0    
      -1000.0     -1000.0     -1000.0     -1000.0     -1000.0     -1000.0     -1000.0     -1000.0     -1000.0     -1000.0    
      -1000.0     -1000.0     -1000.0     -1000.0     -1000.0     -1000.0     -1000.0     -1000.0     -1000.0     -1000.0    
      -1000.0     -1000.0     -1000.0     -1000.0     -1000.0     -1000.0     -1000.0     -1000.0     -1000.0     -1000.0    
      -1000.0     -1000.0     -1000.0     -1000.0     -1000.0     -1000.0     -1000.0     -1000.0     -1000.0       70.00    
1
              HEAD IN LAYER   3 AT END OF TIME STEP   1 IN STRESS PERIOD    1
  ---------------------------------------------------------------------------

            1           2           3           4           5           6           7           8           9          10
           11          12          13          14          15          16          17          18          19          20
           21          22          23          24          25          26          27          28          29          30
           31          32          33          34          35          36          37          38          39          40
[...]
        82.91       82.58       82.20       81.76       81.29       80.79       80.27       79.73       79.18       78.61    
        78.02       77.42       76.80       76.15       75.46       74.71       73.88       72.93       71.98       72.05    
        72.11       72.06       71.92       71.72       71.48       71.22       70.93       70.63       70.32       70.00    
  24  -1000.0       99.04       98.58       97.91       97.13       96.29       95.41       94.49       93.56       92.61    
        91.64       90.66       89.67       88.66       87.63       86.57       85.57       84.60       83.68       82.82    
        82.71       82.47       82.13       81.73       81.28       80.79       80.28       79.75       79.20       78.63    
        78.06       77.46       76.85       76.22       75.56       74.87       74.15       73.43       72.82       72.55    
        72.38       72.21       72.01       71.78       71.52       71.24       70.95       70.64       70.32       70.00    
  25  -1000.0       100.2       99.34       98.40       97.44       96.47       95.49       94.51       93.52       92.53    
        91.53       90.53       89.54       88.53       87.53       86.51       85.51       84.51       83.52       82.57    
        82.63       82.45       82.15       81.76       81.32       80.84       80.33       79.79       79.25       78.69    
        78.11       77.53       76.93       76.32       75.70       75.06       74.43       73.82       73.31       72.93    
        72.65       72.39       72.13       71.86       71.58       71.28       70.97       70.66       70.33       70.00    
  26  -1000.0       99.17       98.72       98.06       97.29       96.46       95.59       94.69       93.77       92.83    
        91.87       90.89       89.90       88.88       87.84       86.76       85.72       84.72       83.76       82.88    
        82.79       82.58       82.25       81.86       81.41       80.92       80.41       79.87       79.33       78.76    
        78.20       77.62       77.03       76.44       75.85       75.25       74.67       74.13       73.64       73.23    
        72.88       72.56       72.26       71.96       71.65       71.33       71.01       70.67       70.34       70.00    
  27  -1000.0       98.70       98.40       97.91       97.29       96.58       95.81       94.99       94.13       93.24    
        92.32       91.37       90.38       89.36       88.30       87.19       86.13       85.11       84.15       83.25    
        83.09       82.81       82.45       82.02       81.55       81.05       80.53       79.98       79.43       78.87    
        78.30       77.73       77.15       76.57       76.00       75.44       74.89       74.37       73.89       73.46    
        73.08       72.72       72.38       72.05       71.71       71.38       71.04       70.69       70.35       70.00    
  28  -1000.0       98.59       98.38       97.99       97.47       96.86       96.17       95.43       94.63       93.78    
        92.90       91.97       90.99       89.98       88.91       87.78       86.71       85.68       84.70       83.77    
        83.50       83.14       82.71       82.25       81.75       81.22       80.68       80.12       79.56       78.99    
        78.42       77.85       77.28       76.72       76.16       75.61       75.08       74.57       74.10       73.66    
        73.25       72.87       72.50       72.14       71.78       71.43       71.07       70.72       70.36       70.00    
  29  -1000.0       98.75       98.59       98.27       97.84       97.31       96.69       96.01       95.26       94.46    
        93.60       92.70       91.74       90.73       89.67       88.54       87.45       86.41       85.42       84.46    
        84.00       83.53       83.03       82.52       81.98       81.42       80.86       80.29       79.72       79.14    
        78.57       77.99       77.43       76.86       76.31       75.77       75.25       74.75       74.27       73.83    
        73.40       72.99       72.60       72.22       71.85       71.48       71.11       70.74       70.37       70.00    
  30  -1000.0       98.98       98.84       98.58       98.20       97.73       97.16       96.53       95.83       95.06    
        94.24       93.36       92.42       91.42       90.35       89.22       88.13       87.08       86.07       85.09    
        84.51       83.95       83.39       82.82       82.24       81.66       81.07       80.48       79.89       79.30    
        78.72       78.15       77.58       77.02       76.47       75.93       75.41       74.91       74.43       73.97    
        73.54       73.11       72.70       72.31       71.92       71.53       71.15       70.76       70.38       70.00    
  31  -1000.0       99.24       99.12       98.89       98.55       98.12       97.61       97.01       96.35       95.61    
        94.82       93.95       93.03       92.04       90.98       89.85       88.75       87.70       86.67       85.68    
        85.01       84.38       83.76       83.14       82.52       81.91       81.29       80.68       80.08       79.48    
        78.89       78.31       77.74       77.18       76.63       76.09       75.57       75.06       74.58       74.11    
        73.66       73.22       72.80       72.39       71.98       71.58       71.18       70.79       70.39       70.00    
  32  -1000.0       99.52       99.42       99.21       98.90       98.50       98.02       97.45       96.82       96.11    
        95.34       94.49       93.58       92.60       91.55       90.42       89.32       88.26       87.22       86.21    
        85.49       84.80       84.13       83.47       82.81       82.17       81.53       80.90       80.28       79.67    
        79.07       78.48       77.90       77.34       76.78       76.24       75.72       75.21       74.72       74.24    
        73.78       73.33       72.89       72.46       72.04       71.63       71.22       70.81       70.40       70.00    
  33  -1000.0       99.81       99.71       99.52       99.23       98.86       98.40       97.86       97.25       96.57    
        95.81       94.98       94.09       93.11       92.07       90.94       89.85       88.78       87.73       86.71    
        85.95       85.21       84.49       83.80       83.11       82.44       81.78       81.13       80.49       79.87    
        79.26       78.66       78.07       77.50       76.94       76.40       75.86       75.35       74.85       74.36    
        73.89       73.43       72.98       72.54       72.11       71.68       71.25       70.83       70.42       70.00    
  34  -1000.0       100.1      100.00       99.82       99.55       99.19       98.75       98.24       97.65       96.98    
        96.24       95.43       94.54       93.58       92.54       91.42       90.32       89.25       88.21       87.18    
        86.38       85.60       84.85       84.12       83.41       82.71       82.03       81.36       80.71       80.07    
        79.45       78.84       78.24       77.66       77.10       76.54       76.01       75.48       74.98       74.48    
        74.00       73.52       73.06       72.61       72.17       71.73       71.29       70.86       70.43       70.00    
  35  -1000.0       100.4       100.3       100.1       99.84       99.50       99.08       98.59       98.01       97.36    
        96.64       95.84       94.96       94.01       92.97       91.86       90.76       89.69       88.64       87.61    
        86.78       85.97       85.20       84.44       83.70       82.98       82.28       81.59       80.93       80.28    
        79.64       79.02       78.42       77.83       77.25       76.69       76.15       75.62       75.10       74.59    
        74.10       73.62       73.14       72.68       72.22       71.77       71.32       70.88       70.44       70.00    
  36  -1000.0       100.6       100.5       100.4       100.1       99.80       99.39       98.90       98.34       97.71    
        96.99       96.20       95.34       94.39       93.37       92.25       91.16       90.09       89.04       88.01    
        87.16       86.33       85.52       84.74       83.98       83.24       82.52       81.82       81.14       80.48    
        79.83       79.20       78.59       77.99       77.40       76.84       76.28       75.74       75.21       74.70    
        74.20       73.70       73.22       72.75       72.28       71.82       71.36       70.90       70.45       70.00    
  37  -1000.0       100.9       100.8       100.6       100.4       100.1       99.67       99.19       98.64       98.02    
        97.32       96.54       95.68       94.74       93.72       92.62       91.53       90.46       89.41       88.38    
        87.51       86.66       85.83       85.03       84.25       83.50       82.76       82.05       81.35       80.67    
        80.02       79.37       78.75       78.14       77.55       76.97       76.41       75.86       75.33       74.80    
        74.29       73.79       73.30       72.81       72.33       71.86       71.39       70.92       70.46       70.00    
  38  -1000.0       101.1       101.0       100.9       100.6       100.3       99.92       99.45       98.91       98.30    
        97.61       96.84       95.99       95.06       94.04       92.94       91.86       90.80       89.75       88.73    
        87.83       86.96       86.12       85.30       84.51       83.74       82.99       82.26       81.55       80.86    
        80.19       79.54       78.91       78.29       77.69       77.11       76.54       75.98       75.43       74.90    
        74.38       73.87       73.37       72.87       72.38       71.90       71.42       70.95       70.47       70.00    
  39  -1000.0       101.3       101.2       101.1       100.8       100.5       100.1       99.69       99.16       98.55    
        97.87       97.10       96.26       95.34       94.33       93.24       92.16       91.11       90.06       89.04    
        88.13       87.25       86.39       85.56       84.75       83.96       83.20       82.46       81.74       81.04    
        80.36       79.70       79.06       78.44       77.83       77.23       76.65       76.09       75.53       74.99    
        74.46       73.94       73.43       72.93       72.43       71.94       71.45       70.96       70.48       70.00    
  40  -1000.0       101.5       101.4       101.2       101.0       100.7       100.3       99.89       99.37       98.77    
        98.10       97.34       96.51       95.59       94.59       93.51       92.44       91.38       90.35       89.33    
        88.40       87.50       86.63       85.79       84.97       84.17       83.40       82.65       81.92       81.21    
        80.52       79.86       79.20       78.57       77.95       77.35       76.76       76.19       75.63       75.08    
        74.54       74.01       73.49       72.98       72.47       71.97       71.47       70.98       70.49       70.00    
  41  -1000.0       101.6       101.6       101.4       101.2       100.9       100.5       100.1       99.55       98.96    
        98.29       97.55       96.72       95.81       94.82       93.74       92.68       91.63       90.60       89.58    
        88.65       87.74       86.86       86.00       85.17       84.37       83.58       82.82       82.09       81.37    
        80.67       80.00       79.34       78.69       78.07       77.46       76.86       76.28       75.71       75.16    
        74.61       74.08       73.55       73.03       72.51       72.00       71.50       71.00       70.50       70.00    
  42  -1000.0     -1000.0       101.7       101.5       101.3       101.0       100.7       100.2       99.71       99.13    
        98.46       97.73       96.91       96.01       95.02       93.95       92.89       91.84       90.82       89.81    
        88.87       87.95       87.06       86.19       85.36       84.54       83.75       82.98       82.24       81.51    
        80.81       80.12       79.46       78.81       78.18       77.56       76.96       76.37       75.79       75.23    
        74.68       74.13       73.60       73.07       72.55       72.03       71.52       71.01       70.51       70.00    
  43  -1000.0     -1000.0     -1000.0       101.7       101.4       101.1       100.8       100.3       99.84       99.26    
        98.61       97.88       97.06       96.17       95.19       94.12       93.07       92.03       91.01       90.01    
        89.06       88.13       87.23       86.36       85.52       84.70       83.90       83.12       82.37       81.64    
        80.93       80.24       79.56       78.91       78.27       77.65       77.04       76.44       75.86       75.29    
        74.73       74.18       73.64       73.11       72.58       72.06       71.54       71.02       70.51       70.00    
  44  -1000.0     -1000.0     -1000.0     -1000.0       101.5       101.2       100.9       100.4       99.93       99.36    
        98.72       98.00       97.19       96.31       95.33       94.27       93.23       92.19       91.18       90.18    
        89.22       88.29       87.39       86.51       85.66       84.83       84.02       83.24       82.49       81.75    
        81.03       80.33       79.66       79.00       78.35       77.72       77.11       76.51       75.92       75.35    
        74.78       74.23       73.68       73.14       72.61       72.08       71.56       71.04       70.52       70.00    
  45  -1000.0     -1000.0     -1000.0     -1000.0     -1000.0       101.3       100.9       100.5      100.00       99.44    
        98.80       98.09       97.30       96.42       95.45       94.39       93.35       92.33       91.32       90.32    
        89.36       88.42       87.51       86.63       85.77       84.94       84.13       83.35       82.58       81.84    
        81.12       80.42       79.74       79.07       78.42       77.79       77.17       76.57       75.97       75.39    
        74.83       74.27       73.71       73.17       72.63       72.10       71.57       71.05       70.52       70.00    
  46  -1000.0     -1000.0     -1000.0     -1000.0     -1000.0     -1000.0       100.9       100.5       100.0       99.48    
        98.86       98.16       97.37       96.50       95.54       94.49       93.45       92.43       91.42       90.43    
        89.47       88.53       87.62       86.73       85.87       85.03       84.22       83.43       82.66       81.92    
        81.19       80.49       79.80       79.13       78.48       77.84       77.22       76.61       76.02       75.43    
        74.86       74.30       73.74       73.19       72.65       72.11       71.58       71.05       70.53       70.00    
  47  -1000.0     -1000.0     -1000.0     -1000.0     -1000.0     -1000.0     -1000.0       100.5       100.0       99.50    
        98.89       98.20       97.43       96.56       95.61       94.56       93.53       92.51       91.51       90.52    
        89.55       88.61       87.69       86.80       85.94       85.10       84.28       83.49       82.72       81.97    
        81.24       80.54       79.85       79.18       78.52       77.88       77.26       76.65       76.05       75.46    
        74.88       74.32       73.76       73.21       72.67       72.13       71.59       71.06       70.53       70.00    
  48  -1000.0     -1000.0     -1000.0     -1000.0     -1000.0     -1000.0     -1000.0     -1000.0       100.0       99.48    
        98.90       98.22       97.46       96.60       95.65       94.61       93.58       92.56       91.56       90.58    
        89.60       88.66       87.74       86.85       85.99       85.15       84.33       83.53       82.76       82.01    
        81.28       80.57       79.88       79.21       78.55       77.91       77.28       76.67       76.07       75.48    
        74.90       74.33       73.77       73.22       72.68       72.13       71.60       71.06       70.53       70.00    
  49  -1000.0     -1000.0     -1000.0     -1000.0     -1000.0     -1000.0     -1000.0     -1000.0     -1000.0       99.43    
        98.89       98.23       97.47       96.62       95.67       94.63       93.60       92.59       91.59       90.60    
        89.63       88.69       87.77       86.88       86.01       85.17       84.35       83.55       82.78       82.03    
        81.30       80.59       79.90       79.22       78.56       77.92       77.29       76.68       76.08       75.49    
        74.91       74.34       73.78       73.23       72.68       72.14       71.60       71.06       70.53       70.00    
  50  -1000.0     -1000.0     -1000.0     -1000.0     -1000.0     -1000.0     -1000.0     -1000.0     -1000.0     -1000.0    
      -1000.0     -1000.0     -1000.0     -1000.0     -1000.0     -1000.0     -1000.0     -1000.0     -1000.0     -1000.0    
      -1000.0     -1000.0     -1000.0     -1000.0     -1000.0     -1000.0     -1000.0     -1000.0     -1000.0     -1000.0    
      -1000.0     -1000.0     -1000.0     -1000.0     -1000.0     -1000.0     -1000.0     -1000.0     -1000.0     -1000.0    
      -1000.0     -1000.0     -1000.0     -1000.0     -1000.0     -1000.0     -1000.0     -1000.0     -1000.0       70.00    

 HEAD WILL BE SAVED ON UNIT   51 AT END OF TIME STEP    1, STRESS PERIOD    1

 DRAWDOWN WILL BE SAVED ON UNIT   52 AT END OF TIME STEP    1, STRESS PERIOD    1
1
  VOLUMETRIC BUDGET FOR ENTIRE MODEL AT END OF TIME STEP    1, STRESS PERIOD   1
  ------------------------------------------------------------------------------

     CUMULATIVE VOLUMES      L**3       RATES FOR THIS TIME STEP      L**3/T
     ------------------                 ------------------------

           IN:                                      IN:
           ---                                      ---
             STORAGE =           0.0000               STORAGE =           0.0000
       CONSTANT HEAD =           0.0000         CONSTANT HEAD =           0.0000
               WELLS =         375.0000                 WELLS =         375.0000
       RIVER LEAKAGE =       17994.8594         RIVER LEAKAGE =       17994.8594
                  ET =           0.0000                    ET =           0.0000
            RECHARGE =       33199.9961              RECHARGE =       33199.9961

            TOTAL IN =       51569.8555              TOTAL IN =       51569.8555

          OUT:                                     OUT:
          ----                                     ----
             STORAGE =           0.0000               STORAGE =           0.0000
       CONSTANT HEAD =        8079.5405         CONSTANT HEAD =        8079.5405
               WELLS =        6000.0000                 WELLS =        6000.0000
       RIVER LEAKAGE =        1615.5646         RIVER LEAKAGE =        1615.5646
                  ET =       35874.5664                    ET =       35874.5664
            RECHARGE =           0.0000              RECHARGE =           0.0000

           TOTAL OUT =       51569.6719             TOTAL OUT =       51569.6719

            IN - OUT =           0.1836              IN - OUT =           0.1836

 PERCENT DISCREPANCY =           0.00     PERCENT DISCREPANCY =           0.00






         TIME SUMMARY AT END OF TIME STEP    1 IN STRESS PERIOD    1
                    SECONDS     MINUTES      HOURS       DAYS        YEARS
                    -----------------------------------------------------------
   TIME STEP LENGTH  86400.      1440.0      24.000      1.0000     2.73785E-03
 STRESS PERIOD TIME  86400.      1440.0      24.000      1.0000     2.73785E-03
         TOTAL TIME  86400.      1440.0      24.000      1.0000     2.73785E-03
1

 Run end date and time (yyyy/mm/dd hh:mm:ss): 2026/02/26  5:34:10
 Elapsed run time: 12.534 Seconds

