                                  MODFLOW-2005     
      U.S. GEOLOGICAL SURVEY MODULAR FINITE-DIFFERENCE GROUND-WATER FLOW MODEL
                            VERSION 1.12.00 2/3/2017

 LIST FILE: static_ensemble_2222222.list
                         UNIT    2

 OPENING static_ensemble_2222222.dis
 FILE TYPE:DIS   UNIT   11   STATUS:OLD    
 FORMAT:FORMATTED              ACCESS:SEQUENTIAL          

 OPENING static_ensemble_2222222.bas
 FILE TYPE:BAS6   UNIT   13   STATUS:OLD    
 FORMAT:FORMATTED              ACCESS:SEQUENTIAL          

 OPENING static_ensemble_2222222.lpf
 FILE TYPE:LPF   UNIT   15   STATUS:OLD    
 FORMAT:FORMATTED              ACCESS:SEQUENTIAL          

 OPENING static_ensemble_2222222.evt
 FILE TYPE:EVT   UNIT   22   STATUS:OLD    
 FORMAT:FORMATTED              ACCESS:SEQUENTIAL          

 OPENING static_ensemble_2222222.rch
 FILE TYPE:RCH   UNIT   19   STATUS:OLD    
 FORMAT:FORMATTED              ACCESS:SEQUENTIAL          

 OPENING static_ensemble_2222222.riv
 FILE TYPE:RIV   UNIT   18   STATUS:OLD    
 FORMAT:FORMATTED              ACCESS:SEQUENTIAL          

 OPENING static_ensemble_2222222.wel
 FILE TYPE:WEL   UNIT   20   STATUS:OLD    
 FORMAT:FORMATTED              ACCESS:SEQUENTIAL          

 OPENING static_ensemble_2222222.oc
 FILE TYPE:OC   UNIT   14   STATUS:OLD    
 FORMAT:FORMATTED              ACCESS:SEQUENTIAL          

 OPENING static_ensemble_2222222.pcg
 FILE TYPE:PCG   UNIT   27   STATUS:OLD    
 FORMAT:FORMATTED              ACCESS:SEQUENTIAL          

 OPENING static_ensemble_2222222.cbc
 FILE TYPE:DATA(BINARY)   UNIT   53   STATUS:REPLACE
 FORMAT:UNFORMATTED            ACCESS:STREAM              

 OPENING static_ensemble_2222222.hds
 FILE TYPE:DATA(BINARY)   UNIT   51   STATUS:REPLACE
 FORMAT:UNFORMATTED            ACCESS:STREAM              

 OPENING static_ensemble_2222222.ddn
 FILE TYPE:DATA(BINARY)   UNIT   52   STATUS:REPLACE
 FORMAT:UNFORMATTED            ACCESS:STREAM              

 BAS -- BASIC PACKAGE, VERSION 7, 5/2/2005 INPUT READ FROM UNIT   13
 
 MODFLOW was compiled using mixed precision
 Precision of REAL variables:           6
 Precision of DOUBLE PRECISION variables:          15

 DISCRETIZATION INPUT DATA READ FROM UNIT   11
 # DIS package for MODFLOW-2005 generated by Flopy 3.9.5
    3 LAYERS        50 ROWS        50 COLUMNS
    1 STRESS PERIOD(S) IN SIMULATION
 MODEL TIME UNIT IS DAYS
 MODEL LENGTH UNIT IS METERS
  Confining bed flag for each layer:
   0   0   0

                     DELR =   1000.00    

                     DELC =   1000.00    



           TOP ELEVATION OF LAYER 1
 READING ON UNIT   11 WITH FORMAT: (50E15.6)           



             MODEL LAYER BOTTOM EL. FOR LAYER   1
 READING ON UNIT   11 WITH FORMAT: (50E15.6)           



             MODEL LAYER BOTTOM EL. FOR LAYER   2
 READING ON UNIT   11 WITH FORMAT: (50E15.6)           



             MODEL LAYER BOTTOM EL. FOR LAYER   3
 READING ON UNIT   11 WITH FORMAT: (50E15.6)           


 STRESS PERIOD     LENGTH       TIME STEPS     MULTIPLIER FOR DELT    SS FLAG
 ----------------------------------------------------------------------------
        1         1.000000          1                    1.000         SS

 STEADY-STATE SIMULATION



 
 # BAS6 package for MODFLOW-2005 generated by Flopy 3.9.5                        
 THE FREE FORMAT OPTION HAS BEEN SELECTED



                     BOUNDARY ARRAY FOR LAYER   1
 READING ON UNIT   13 WITH FORMAT: (50I10)             



                     BOUNDARY ARRAY FOR LAYER   2
 READING ON UNIT   13 WITH FORMAT: (50I10)             



                     BOUNDARY ARRAY FOR LAYER   3
 READING ON UNIT   13 WITH FORMAT: (50I10)             

 AQUIFER HEAD WILL BE SET TO  -999.99     AT ALL NO-FLOW NODES (IBOUND=0).



                       INITIAL HEAD FOR LAYER   1
 READING ON UNIT   13 WITH FORMAT: (50E15.6)           



                       INITIAL HEAD FOR LAYER   2
 READING ON UNIT   13 WITH FORMAT: (50E15.6)           



                       INITIAL HEAD FOR LAYER   3
 READING ON UNIT   13 WITH FORMAT: (50E15.6)           
 # OC package for MODFLOW-2005 generated by Flopy 3.9.5

 OUTPUT CONTROL IS SPECIFIED ONLY AT TIME STEPS FOR WHICH OUTPUT IS DESIRED
 COMPACT CELL-BY-CELL BUDGET FILES WILL BE WRITTEN
 AUXILIARY DATA WILL BE SAVED IN CELL-BY-CELL BUDGET FILES
 HEAD PRINT FORMAT CODE IS   0    DRAWDOWN PRINT FORMAT CODE IS   0
 HEADS WILL BE SAVED ON UNIT   51    DRAWDOWNS WILL BE SAVED ON UNIT   52

 LPF -- LAYER-PROPERTY FLOW PACKAGE, VERSION 7, 5/2/2005
         INPUT READ FROM UNIT   15
 # LPF package for MODFLOW-2005 generated by Flopy 3.9.5
 CELL-BY-CELL FLOWS WILL BE SAVED ON UNIT   53
 HEAD AT CELLS THAT CONVERT TO DRY= -1.00000E+30
 No named parameters
 STORAGECOEFFICIENT OPTION:
 Read storage coefficient rather than specific storage

   LAYER FLAGS:
 LAYER       LAYTYP        LAYAVG         CHANI        LAYVKA        LAYWET
 ---------------------------------------------------------------------------
    1             1             0     1.000E+00             0             0
    2             1             0     1.000E+00             0             0
    3             1             0     1.000E+00             0             0

   INTERPRETATION OF LAYER FLAGS:
                        INTERBLOCK     HORIZONTAL    DATA IN
         LAYER TYPE   TRANSMISSIVITY   ANISOTROPY   ARRAY VKA   WETTABILITY
 LAYER      (LAYTYP)      (LAYAVG)       (CHANI)      (LAYVKA)      (LAYWET)
 ---------------------------------------------------------------------------
    1   CONVERTIBLE      HARMONIC     1.000E+00    VERTICAL K  NON-WETTABLE
    2   CONVERTIBLE      HARMONIC     1.000E+00    VERTICAL K  NON-WETTABLE
    3   CONVERTIBLE      HARMONIC     1.000E+00    VERTICAL K  NON-WETTABLE

 WETTING CAPABILITY IS NOT ACTIVE IN ANY LAYER



              HYD. COND. ALONG ROWS FOR LAYER   1
 READING ON UNIT   15 WITH FORMAT: (50E15.6)           



                VERTICAL HYD. COND. FOR LAYER   1
 READING ON UNIT   15 WITH FORMAT: (50E15.6)           



              HYD. COND. ALONG ROWS FOR LAYER   2
 READING ON UNIT   15 WITH FORMAT: (50E15.6)           



                VERTICAL HYD. COND. FOR LAYER   2
 READING ON UNIT   15 WITH FORMAT: (50E15.6)           



              HYD. COND. ALONG ROWS FOR LAYER   3
 READING ON UNIT   15 WITH FORMAT: (50E15.6)           



                VERTICAL HYD. COND. FOR LAYER   3
 READING ON UNIT   15 WITH FORMAT: (50E15.6)           

 WEL -- WELL PACKAGE, VERSION 7, 5/2/2005 INPUT READ FROM UNIT   20
 # WEL package for MODFLOW-2005 generated by Flopy 3.9.5
 No named parameters
 MAXIMUM OF      3 ACTIVE WELLS AT ONE TIME


     0 Well parameters

 RIV -- RIVER PACKAGE, VERSION 7, 5/2/2005 INPUT READ FROM UNIT   18
 # RIV package for MODFLOW-2005 generated by Flopy 3.9.5
 No named parameters
 MAXIMUM OF     49 ACTIVE RIVER REACHES AT ONE TIME
 CELL-BY-CELL FLOWS WILL BE SAVED ON UNIT   53


     0 River parameters

 EVT -- EVAPOTRANSPIRATION PACKAGE, VERSION 7, 5/2/2005
         INPUT READ FROM UNIT   22
 # EVT package for MODFLOW-2005 generated by Flopy 3.9.5
 No named parameters
 OPTION 3 -- EVAPOTRANSPIRATION FROM HIGHEST ACTIVE NODE IN EACH VERTICAL COLUMN
 CELL-BY-CELL FLOWS WILL BE SAVED ON UNIT   53


     0 Evapotranspiration parameters

 RCH -- RECHARGE PACKAGE, VERSION 7, 5/2/2005 INPUT READ FROM UNIT   19
 # RCH package for MODFLOW-2005 generated by Flopy 3.9.5
 No named parameters
 OPTION 3 -- RECHARGE TO HIGHEST ACTIVE NODE IN EACH VERTICAL COLUMN
 CELL-BY-CELL FLOWS WILL BE SAVED ON UNIT   53


     0 Recharge parameters

 PCG -- CONJUGATE-GRADIENT SOLUTION PACKAGE, VERSION 7, 5/2/2005
 # PCG package for MODFLOW-2005 generated by Flopy 3.9.5
 MAXIMUM OF   5000 CALLS OF SOLUTION ROUTINE
 MAXIMUM OF    500 INTERNAL ITERATIONS PER CALL TO SOLUTION ROUTINE
 MATRIX PRECONDITIONING TYPE :    1



                                    SOLUTION BY THE CONJUGATE-GRADIENT METHOD
                                   -------------------------------------------
                    MAXIMUM NUMBER OF CALLS TO PCG ROUTINE =     5000
                        MAXIMUM ITERATIONS PER CALL TO PCG =      500
                               MATRIX PRECONDITIONING TYPE =        1
        RELAXATION FACTOR (ONLY USED WITH PRECOND. TYPE 1) =    0.97000E+00
 PARAMETER OF POLYNOMIAL PRECOND. = 2 (2) OR IS CALCULATED :        0
                         HEAD CHANGE CRITERION FOR CLOSURE =    0.10000E-04
                     RESIDUAL CHANGE CRITERION FOR CLOSURE =    0.10000E-04
            PCG HEAD AND RESIDUAL CHANGE PRINTOUT INTERVAL =      999
     PRINTING FROM SOLVER IS LIMITED(1) OR SUPPRESSED (>1) =        3
                            STEADY-STATE DAMPING PARAMETER =    0.10000E-01
                               TRANSIENT DAMPING PARAMETER =    0.10000E-01
1
                            STRESS PERIOD NO.    1, LENGTH =   1.000000    
                            -----------------------------------------------

                              NUMBER OF TIME STEPS =     1

                               MULTIPLIER FOR DELT =     1.000

                            INITIAL TIME STEP SIZE =   1.000000    

 WELL NO.  LAYER   ROW   COL   STRESS RATE         
 --------------------------------------------------
      1      3     22     39      -1500.    
      2      1     13     15      -1500.    
      3      1     25     26       375.0    

      3 WELLS

 REACH NO.  LAYER   ROW   COL     STAGE      CONDUCTANCE     BOTTOM EL.         
 -------------------------------------------------------------------------------
      1      1     25      2       100.5           2500.           98.00    
      2      1     25      3       99.50           2500.           97.00    
      3      1     25      4       98.50           2500.           96.00    
      4      1     25      5       97.50           2500.           95.00    
      5      1     25      6       96.50           2500.           94.00    
      6      1     25      7       95.50           2500.           93.00    
      7      1     25      8       94.50           2500.           92.00    
      8      1     25      9       93.50           2500.           91.00    
      9      1     25     10       92.50           2500.           90.00    
     10      1     25     11       91.50           2500.           89.00    
     11      1     25     12       90.50           2500.           88.00    
     12      1     25     13       89.50           2500.           87.00    
     13      1     25     14       88.50           2500.           86.00    
     14      1     25     15       87.50           2500.           85.00    
     15      1     25     16       86.50           2500.           84.00    
     16      1     25     17       85.50           2500.           83.00    
     17      1     25     18       84.50           2500.           82.00    
     18      1     25     19       83.50           2500.           81.00    
     19      1     25     20       82.50           2500.           80.00    
     20      1     25     21       81.50           2500.           79.00    
     21      1     25     22       80.50           2500.           78.00    
     22      1     25     23       79.50           2500.           77.00    
     23      1     25     24       78.50           2500.           76.00    
     24      1     25     25       77.50           2500.           75.00    
     25      1     25     26       77.40           2500.           74.90    
     26      1     25     27       77.30           2500.           74.80    
     27      1     25     28       77.20           2500.           74.70    
     28      1     25     29       77.10           2500.           74.60    
     29      1     25     30       77.00           2500.           74.50    
     30      1     25     31       76.90           2500.           74.40    
     31      1     25     32       76.80           2500.           74.30    
     32      1     25     33       76.70           2500.           74.20    
     33      1     25     34       76.60           2500.           74.10    
     34      1     25     35       76.50           2500.           74.00    
     35      1     25     36       76.40           2500.           73.90    
     36      1     25     37       76.30           2500.           73.80    
     37      1     25     38       76.20           2500.           73.70    
     38      1     25     39       76.10           2500.           73.60    
     39      1     25     40       76.00           2500.           73.50    
     40      1     25     41       75.90           2500.           73.40    
     41      1     25     42       75.80           2500.           73.30    
     42      1     25     43       75.70           2500.           73.20    
     43      1     25     44       75.60           2500.           73.10    
     44      1     25     45       75.50           2500.           73.00    
     45      1     25     46       75.40           2500.           72.90    
     46      1     25     47       75.30           2500.           72.80    
     47      1     25     48       75.20           2500.           72.70    
     48      1     25     49       75.10           2500.           72.60    
     49      1     25     50       75.00           2500.           72.50    

     49 RIVER REACHES



                         ET SURFACE
 READING ON UNIT   22 WITH FORMAT: (50E15.6)           



            EVAPOTRANSPIRATION RATE
 READING ON UNIT   22 WITH FORMAT: (50E15.6)           

         EXTINCTION DEPTH =   10.0000    



                           RECHARGE
 READING ON UNIT   19 WITH FORMAT: (50E15.6)           
 
 SOLVING FOR HEAD 

 OUTPUT CONTROL FOR STRESS PERIOD    1   TIME STEP    1
    SAVE HEAD FOR ALL LAYERS
    SAVE DRAWDOWN FOR ALL LAYERS
    SAVE BUDGET
    PRINT HEAD FOR ALL LAYERS
    PRINT BUDGET
 UBDSV2 SAVING "   CONSTANT HEAD" ON UNIT  53 AT TIME STEP  1, STRESS PERIOD   1
 UBDSV1 SAVING "FLOW RIGHT FACE " ON UNIT  53 AT TIME STEP  1, STRESS PERIOD   1
 UBDSV1 SAVING "FLOW FRONT FACE " ON UNIT  53 AT TIME STEP  1, STRESS PERIOD   1
 UBDSV1 SAVING "FLOW LOWER FACE " ON UNIT  53 AT TIME STEP  1, STRESS PERIOD   1
 UBDSV4 SAVING "   RIVER LEAKAGE" ON UNIT  53 AT TIME STEP  1, STRESS PERIOD   1
 UBDSV3 SAVING "              ET" ON UNIT  53 AT TIME STEP  1, STRESS PERIOD   1
 UBDSV3 SAVING "        RECHARGE" ON UNIT  53 AT TIME STEP  1, STRESS PERIOD   1
1
              HEAD IN LAYER   1 AT END OF TIME STEP   1 IN STRESS PERIOD    1
  ---------------------------------------------------------------------------

            1           2           3           4           5           6           7           8           9          10
           11          12          13          14          15          16          17          18          19          20
           21          22          23          24          25          26          27          28          29          30
           31          32          33          34          35          36          37          38          39          40
           41          42          43          44          45          46          47          48          49          50
 ........................................................................................................................
   1  -1000.0     -1000.0     -1000.0     -1000.0     -1000.0     -1000.0     -1000.0     -1000.0     -1000.0     -1000.0    
      -1000.0     -1000.0     -1000.0     -1000.0     -1000.0     -1000.0     -1000.0     -1000.0     -1000.0     -1000.0    
      -1000.0     -1000.0     -1000.0     -1000.0     -1000.0     -1000.0     -1000.0     -1000.0     -1000.0     -1000.0    
      -1000.0     -1000.0     -1000.0     -1000.0     -1000.0     -1000.0     -1000.0     -1000.0     -1000.0     -1000.0    
      -1000.0     -1000.0     -1000.0     -1000.0     -1000.0     -1000.0     -1000.0     -1000.0     -1000.0       70.00    
   2  -1000.0     -1000.0     -1000.0     -1000.0     -1000.0       87.71       87.59       87.40       87.17       86.90    
        86.68       86.41       86.11       85.77       85.41       85.02       84.62       84.22       83.80       83.38    
        82.96       82.53       82.10       81.67       81.24       80.80       80.37       79.93       79.49       79.06    
        78.62       78.18       77.74       77.31       76.87       76.43       75.99       75.54       75.10       74.65    
        74.20       73.75       73.29       72.83       72.37       71.90       71.43       70.96       70.48       70.00    
   3  -1000.0     -1000.0     -1000.0     -1000.0       87.95       87.81       87.64       87.43       87.18       86.95    
        86.71       86.43       86.12       85.78       85.42       85.03       84.63       84.22       83.81       83.39    
        82.96       82.54       82.10       81.67       81.24       80.80       80.37       79.93       79.49       79.05    
        78.62       78.18       77.74       77.30       76.87       76.43       75.98       75.54       75.10       74.65    
        74.20       73.75       73.29       72.83       72.37       71.90       71.43       70.96       70.48       70.00    
   4  -1000.0     -1000.0     -1000.0       88.22       88.07       87.90       87.70       87.48       87.26       87.02    
        86.76       86.47       86.15       85.81       85.44       85.04       84.64       84.23       83.81       83.39    
        82.97       82.54       82.10       81.67       81.24       80.80       80.36       79.92       79.49       79.05    
        78.61       78.18       77.74       77.30       76.86       76.42       75.98       75.54       75.10       74.65    
        74.20       73.75       73.29       72.83       72.37       71.90       71.43       70.96       70.48       70.00    
   5  -1000.0     -1000.0       88.47       88.34       88.18       88.00       87.78       87.58       87.35       87.10    
        86.82       86.52       86.19       85.84       85.46       85.06       84.66       84.24       83.82       83.40    
        82.97       82.54       82.10       81.67       81.23       80.79       80.36       79.92       79.48       79.04    
        78.61       78.17       77.73       77.30       76.86       76.42       75.98       75.54       75.10       74.65    
        74.20       73.75       73.29       72.83       72.37       71.90       71.43       70.96       70.48       70.00    
   6  -1000.0       88.68       88.58       88.45       88.29       88.10       87.90       87.69       87.45       87.18    
        86.90       86.58       86.25       85.88       85.50       85.09       84.68       84.26       83.84       83.41    
        82.98       82.54       82.10       81.67       81.23       80.79       80.35       79.91       79.47       79.03    
        78.60       78.16       77.72       77.29       76.85       76.41       75.98       75.54       75.09       74.65    
        74.20       73.75       73.30       72.84       72.37       71.91       71.44       70.96       70.48       70.00    
   7  -1000.0       88.76       88.69       88.57       88.41       88.23       88.03       87.80       87.55       87.28    
        86.98       86.65       86.31       85.93       85.54       85.12       84.70       84.28       83.85       83.42    
        82.98       82.54       82.10       81.66       81.22       80.78       80.34       79.90       79.46       79.02    
        78.58       78.15       77.71       77.28       76.84       76.41       75.97       75.53       75.09       74.65    
        74.20       73.75       73.30       72.84       72.38       71.91       71.44       70.96       70.48       70.00    
   8  -1000.0       88.88       88.82       88.70       88.55       88.37       88.16       87.93       87.67       87.39    
        87.07       86.74       86.37       85.99       85.58       85.16       84.73       84.30       83.87       83.43    
        82.99       82.54       82.10       81.65       81.21       80.77       80.32       79.88       79.44       79.00    
        78.57       78.13       77.70       77.27       76.83       76.40       75.97       75.53       75.09       74.65    
        74.21       73.76       73.30       72.85       72.38       71.92       71.44       70.97       70.49       70.00    
   9  -1000.0       89.03       88.97       88.85       88.70       88.52       88.31       88.07       87.80       87.50    
        87.18       86.83       86.45       86.05       85.63       85.20       84.76       84.33       83.88       83.44    
        82.99       82.54       82.09       81.64       81.20       80.75       80.30       79.86       79.42       78.98    
        78.55       78.12       77.68       77.25       76.82       76.39       75.96       75.53       75.09       74.65    
        74.21       73.76       73.31       72.85       72.39       71.92       71.45       70.97       70.49       70.00    
  10  -1000.0       89.21       89.13       89.02       88.87       88.69       88.47       88.23       87.95       87.63    
        87.29       86.93       86.53       86.11       85.68       85.24       84.79       84.35       83.90       83.45    
        83.00       82.54       82.09       81.63       81.18       80.73       80.28       79.84       79.40       78.96    
        78.52       78.09       77.66       77.24       76.81       76.38       75.95       75.52       75.09       74.66    
        74.22       73.77       73.32       72.86       72.40       71.93       71.46       70.98       70.49       70.00    
  11  -1000.0       89.37       89.31       89.21       89.06       88.88       88.65       88.40       88.11       87.78    
        87.42       87.04       86.62       86.17       85.72       85.27       84.83       84.38       83.92       83.46    
        83.00       82.54       82.08       81.61       81.16       80.70       80.25       79.81       79.36       78.93    
        78.50       78.07       77.64       77.22       76.79       76.37       75.95       75.52       75.09       74.66    
        74.22       73.78       73.33       72.88       72.41       71.94       71.47       70.98       70.49       70.00    
  12  -1000.0       89.58       89.52       89.42       89.27       89.08       88.85       88.59       88.28       87.94    
        87.57       87.16       86.71       86.23       85.73       85.30       84.86       84.41       83.95       83.48    
        83.01       82.53       82.06       81.59       81.13       80.67       80.21       79.77       79.33       78.89    
        78.46       78.03       77.61       77.19       76.77       76.36       75.94       75.52       75.09       74.67    
        74.23       73.80       73.35       72.89       72.43       71.96       71.48       70.99       70.50       70.00    
  13  -1000.0       89.82       89.77       89.67       89.52       89.32       89.08       88.80       88.48       88.13    
        87.73       87.30       86.83       86.30       85.65       85.33       84.91       84.45       83.97       83.49    
        83.01       82.52       82.04       81.56       81.09       80.63       80.17       79.72       79.28       78.85    
        78.42       78.00       77.58       77.17       76.75       76.34       75.93       75.52       75.10       74.68    
        74.25       73.81       73.37       72.92       72.46       71.98       71.50       71.01       70.51       70.00    
  14  -1000.0       90.11       90.05       89.94       89.79       89.58       89.33       89.04       88.70       88.33    
        87.92       87.47       86.99       86.47       85.93       85.46       84.98       84.50       84.00       83.50    
        83.00       82.51       82.01       81.52       81.05       80.57       80.11       79.66       79.22       78.79    
        78.37       77.95       77.54       77.13       76.73       76.32       75.92       75.51       75.10       74.69    
        74.27       73.84       73.40       72.95       72.49       72.01       71.52       71.02       70.51       70.00    
  15  -1000.0       90.43       90.37       90.26       90.09       89.88       89.61       89.30       88.95       88.55    
        88.12       87.66       87.17       86.65       86.11       85.59       85.07       84.56       84.04       83.52    
        83.00       82.48       81.97       81.48       80.99       80.51       80.05       79.60       79.16       78.73    
        78.31       77.90       77.50       77.10       76.70       76.31       75.91       75.51       75.11       74.71    
        74.29       73.87       73.44       72.99       72.53       72.05       71.55       71.05       70.53       70.00    
  16  -1000.0       90.80       90.73       90.61       90.44       90.20       89.92       89.59       89.21       88.80    
        88.35       87.86       87.35       86.82       86.27       85.71       85.16       84.61       84.07       83.52    
        82.98       82.45       81.93       81.41       80.92       80.43       79.97       79.51       79.08       78.66    
        78.24       77.84       77.45       77.06       76.67       76.29       75.90       75.51       75.12       74.73    
        74.33       73.91       73.48       73.04       72.58       72.10       71.59       71.08       70.54       70.00    
  17  -1000.0       91.21       91.14       91.01       90.82       90.57       90.26       89.90       89.50       89.06    
        88.59       88.08       87.54       86.98       86.41       85.83       85.24       84.67       84.09       83.52    
        82.96       82.40       81.86       81.34       80.83       80.34       79.87       79.42       78.99       78.57    
        78.17       77.78       77.39       77.01       76.64       76.27       75.89       75.52       75.14       74.76    
        74.37       73.97       73.55       73.11       72.65       72.16       71.65       71.12       70.56       70.00    
  18  -1000.0       91.67       91.60       91.45       91.24       90.97       90.63       90.25       89.82       89.35    
        88.84       88.30       87.74       87.15       86.55       85.93       85.32       84.71       84.11       83.51    
        82.92       82.34       81.78       81.24       80.72       80.22       79.75       79.30       78.88       78.47    
        78.08       77.70       77.33       76.96       76.60       76.24       75.88       75.52       75.16       74.79    
        74.42       74.03       73.63       73.20       72.74       72.25       71.72       71.17       70.59       70.00    
  19  -1000.0       92.19       92.11       91.95       91.71       91.41       91.04       90.62       90.16       89.65    
        89.11       88.53       87.94       87.32       86.68       86.03       85.39       84.75       84.11       83.48    
        82.86       82.25       81.67       81.11       80.58       80.08       79.61       79.17       78.75       78.36    
        77.98       77.62       77.26       76.91       76.57       76.22       75.88       75.53       75.18       74.83    
        74.48       74.12       73.73       73.31       72.85       72.36       71.82       71.25       70.64       70.00    
  20  -1000.0       92.78       92.69       92.50       92.24       91.90       91.49       91.03       90.52       89.97    
        89.39       88.77       88.14       87.48       86.81       86.12       85.44       84.77       84.11       83.44    
        82.78       82.14       81.53       80.95       80.41       79.91       79.44       79.01       78.60       78.23    
        77.87       77.52       77.19       76.86       76.53       76.20       75.87       75.53       75.19       74.88    
        74.57       74.23       73.86       73.46       73.01       72.51       71.96       71.35       70.69       70.00    
  21  -1000.0       93.44       93.33       93.12       92.82       92.43       91.98       91.46       90.91       90.31    
        89.68       89.02       88.34       87.64       86.93       86.20       85.48       84.78       84.10       83.40    
        82.68       82.00       81.36       80.76       80.20       79.70       79.24       78.82       78.43       78.08    
        77.74       77.42       77.11       76.81       76.50       76.19       75.87       75.53       75.19       74.94    
        74.67       74.37       74.03       73.64       73.21       72.72       72.15       71.51       70.78       70.00    
  22  -1000.0       94.20       94.07       93.81       93.46       93.01       92.50       91.93       91.31       90.66    
        89.98       89.27       88.54       87.80       87.04       86.27       85.51       84.76       84.04       83.29    
        82.53       81.81       81.14       80.51       79.94       79.44       78.99       78.60       78.24       77.91    
        77.60       77.31       77.03       76.75       76.48       76.19       75.89       75.55       75.09       75.01    
        74.80       74.54       74.24       73.88       73.47       72.99       72.42       71.73       70.92       70.00    
  23  -1000.0       95.06       94.90       94.60       94.17       93.65       93.06       92.42       91.74       91.03    
        90.29       89.53       88.74       87.95       87.14       86.33       85.52       84.71       83.92       83.13    
        82.35       81.59       80.87       80.21       79.62       79.13       78.71       78.34       78.02       77.73    
        77.46       77.20       76.95       76.71       76.47       76.22       75.96       75.69       75.40       75.21    
        75.01       74.77       74.50       74.18       73.81       73.36       72.80       72.08       71.15       70.00    
  24  -1000.0       96.07       95.87       95.48       94.95       94.34       93.67       92.95       92.19       91.41    
        90.61       89.78       88.95       88.10       87.24       86.38       85.52       84.66       83.81       82.97    
        82.13       81.32       80.55       79.83       79.21       78.75       78.37       78.05       77.78       77.53    
        77.30       77.09       76.88       76.67       76.47       76.27       76.05       75.84       75.63       75.44    
        75.25       75.04       74.81       74.54       74.23       73.84       73.34       72.64       71.59       70.00    
  25  -1000.0       97.25       97.01       96.48       95.81       95.08       94.30       93.49       92.65       91.80    
        90.93       90.04       89.15       88.25       87.34       86.43       85.51       84.60       83.69       82.79    
        81.89       81.01       80.15       79.34       78.63       78.28       77.96       77.72       77.51       77.32    
        77.14       76.97       76.81       76.65       76.49       76.33       76.16       76.00       75.84       75.68    
        75.52       75.35       75.17       74.96       74.73       74.45       74.09       73.56       72.60       70.00    
  26  -1000.0       96.07       95.87       95.48       94.96       94.35       93.67       92.95       92.20       91.42    
        90.61       89.79       88.96       88.11       87.25       86.38       85.52       84.66       83.80       82.96    
        82.13       81.32       80.54       79.83       79.21       78.75       78.37       78.05       77.78       77.54    
        77.31       77.10       76.89       76.69       76.49       76.30       76.10       75.91       75.71       75.51    
        75.30       75.07       74.83       74.55       74.23       73.84       73.34       72.64       71.59       70.00    
  27  -1000.0       95.07       94.91       94.60       94.18       93.66       93.08       92.44       91.76       91.04    
        90.30       89.54       88.76       87.97       87.16       86.34       85.52       84.71       83.90       83.11    
        82.34       81.59       80.87       80.22       79.63       79.14       78.71       78.35       78.03       77.74    
        77.47       77.22       76.98       76.74       76.51       76.28       76.06       75.83       75.59       75.35    
        75.10       74.83       74.54       74.21       73.82       73.37       72.81       72.09       71.15       70.00    
  28  -1000.0       94.21       94.08       93.83       93.47       93.03       92.52       91.95       91.34       90.69    
        90.01       89.30       88.57       87.82       87.06       86.28       85.51       84.74       83.99       83.24    
        82.52       81.82       81.15       80.53       79.96       79.45       79.01       78.61       78.25       77.93    
        77.62       77.34       77.06       76.80       76.54       76.28       76.02       75.76       75.50       75.22    
        74.93       74.62       74.29       73.92       73.50       73.01       72.43       71.74       70.92       70.00    
  29  -1000.0       93.47       93.36       93.15       92.84       92.46       92.01       91.50       90.94       90.35    
        89.72       89.06       88.38       87.68       86.97       86.23       85.50       84.78       84.06       83.36    
        82.67       82.01       81.38       80.78       80.23       79.72       79.26       78.84       78.46       78.10    
        77.77       77.45       77.15       76.86       76.57       76.28       76.00       75.71       75.42       75.11    
        74.79       74.45       74.09       73.69       73.24       72.74       72.16       71.51       70.78       70.00    
  30  -1000.0       92.81       92.72       92.53       92.27       91.93       91.53       91.07       90.57       90.03    
        89.45       88.84       88.20       87.54       86.87       86.17       85.48       84.79       84.12       83.45    
        82.80       82.17       81.56       80.99       80.44       79.94       79.47       79.03       78.63       78.25    
        77.90       77.56       77.23       76.91       76.60       76.29       75.98       75.67       75.35       75.02    
        74.67       74.31       73.92       73.50       73.04       72.53       71.98       71.36       70.70       70.00    
  31  -1000.0       92.23       92.15       91.99       91.76       91.46       91.09       90.68       90.22       89.72    
        89.18       88.61       88.02       87.40       86.76       86.11       85.45       84.80       84.15       83.52    
        82.90       82.29       81.71       81.15       80.62       80.11       79.64       79.20       78.78       78.39    
        78.02       77.66       77.31       76.97       76.63       76.30       75.97       75.63       75.29       74.94    
        74.58       74.19       73.79       73.35       72.89       72.38       71.84       71.26       70.64       70.00    
  32  -1000.0       91.71       91.64       91.50       91.29       91.02       90.69       90.32       89.89       89.43    
        88.93       88.40       87.84       87.26       86.66       86.03       85.41       84.79       84.18       83.57    
        82.97       82.39       81.83       81.29       80.76       80.26       79.79       79.34       78.92       78.51    
        78.12       77.74       77.38       77.02       76.67       76.32       75.96       75.61       75.25       74.88    
        74.50       74.10       73.68       73.24       72.77       72.27       71.74       71.18       70.60       70.00    
  33  -1000.0       91.26       91.19       91.06       90.87       90.63       90.33       89.98       89.59       89.16    
        88.69       88.20       87.67       87.12       86.55       85.96       85.37       84.77       84.19       83.60    
        83.03       82.47       81.92       81.39       80.88       80.39       79.91       79.46       79.03       78.61    
        78.21       77.82       77.44       77.07       76.70       76.33       75.96       75.59       75.22       74.83    
        74.43       74.02       73.60       73.15       72.68       72.18       71.67       71.13       70.57       70.00    
  34  -1000.0       90.85       90.79       90.67       90.50       90.27       90.00       89.67       89.31       88.91    
        88.47       88.00       87.51       86.99       86.44       85.88       85.32       84.75       84.19       83.63    
        83.07       82.53       82.00       81.48       80.98       80.49       80.02       79.56       79.13       78.70    
        78.29       77.89       77.50       77.11       76.73       76.35       75.96       75.58       75.19       74.79    
        74.38       73.96       73.53       73.08       72.61       72.12       71.61       71.09       70.55       70.00    
  35  -1000.0       90.48       90.43       90.32       90.16       89.95       89.69       89.39       89.05       88.68    
        88.26       87.82       87.35       86.86       86.34       85.80       85.26       84.72       84.18       83.64    
        83.10       82.58       82.06       81.55       81.06       80.57       80.10       79.65       79.21       78.78    
        78.36       77.95       77.55       77.15       76.76       76.36       75.97       75.57       75.17       74.76    
        74.35       73.92       73.48       73.02       72.56       72.07       71.57       71.06       70.53       70.00    
  36  -1000.0       90.16       90.11       90.01       89.86       89.66       89.42       89.14       88.82       88.46    
        88.07       87.65       87.21       86.74       86.24       85.73       85.21       84.68       84.16       83.64    
        83.12       82.61       82.11       81.61       81.12       80.64       80.18       79.72       79.28       78.85    
        78.42       78.00       77.59       77.19       76.78       76.38       75.98       75.57       75.16       74.74    
        74.32       73.88       73.44       72.98       72.51       72.03       71.54       71.03       70.52       70.00    
  37  -1000.0       89.87       89.82       89.73       89.58       89.40       89.17       88.90       88.60       88.26    
        87.89       87.50       87.07       86.62       86.14       85.65       85.15       84.64       84.14       83.63    
        83.13       82.63       82.14       81.65       81.17       80.70       80.24       79.78       79.34       78.90    
        78.47       78.05       77.63       77.22       76.81       76.40       75.98       75.57       75.15       74.73    
        74.30       73.86       73.41       72.95       72.48       72.00       71.52       71.02       70.51       70.00    
  38  -1000.0       89.62       89.57       89.48       89.34       89.16       88.95       88.69       88.40       88.08    
        87.73       87.35       86.94       86.51       86.05       85.58       85.09       84.60       84.12       83.62    
        83.14       82.65       82.17       81.69       81.21       80.75       80.29       79.83       79.39       78.95    
        78.52       78.09       77.67       77.25       76.83       76.41       75.99       75.57       75.14       74.71    
        74.28       73.84       73.39       72.93       72.46       71.98       71.50       71.00       70.50       70.00    
  39  -1000.0       89.40       89.35       89.26       89.12       88.95       88.74       88.50       88.22       87.92    
        87.58       87.21       86.82       86.41       85.97       85.50       85.04       84.56       84.09       83.61    
        83.13       82.66       82.18       81.71       81.25       80.78       80.33       79.88       79.43       78.99    
        78.56       78.13       77.70       77.27       76.85       76.42       76.00       75.57       75.14       74.71    
        74.27       73.82       73.37       72.91       72.44       71.97       71.48       70.99       70.50       70.00    
  40  -1000.0       89.21       89.16       89.07       88.93       88.76       88.56       88.33       88.06       87.76    
        87.44       87.09       86.71       86.31       85.89       85.44       84.98       84.52       84.06       83.59    
        83.13       82.66       82.20       81.73       81.27       80.81       80.36       79.91       79.47       79.03    
        78.59       78.16       77.72       77.29       76.87       76.44       76.01       75.57       75.14       74.70    
        74.26       73.81       73.35       72.89       72.43       71.95       71.47       70.99       70.50       70.00    
  41  -1000.0       89.07       89.00       88.90       88.76       88.59       88.40       88.17       87.91       87.63    
        87.31       86.98       86.61       86.22       85.81       85.37       84.93       84.48       84.03       83.58    
        83.12       82.66       82.20       81.75       81.29       80.84       80.39       79.94       79.50       79.05    
        78.62       78.18       77.75       77.31       76.88       76.45       76.01       75.58       75.14       74.70    
        74.25       73.80       73.34       72.88       72.42       71.94       71.46       70.98       70.49       70.00    
  42  -1000.0       88.91       88.86       88.75       88.61       88.44       88.25       88.03       87.78       87.50    
        87.20       86.87       86.52       86.14       85.74       85.32       84.89       84.45       84.01       83.56    
        83.11       82.66       82.21       81.76       81.30       80.85       80.41       79.96       79.52       79.08    
        78.64       78.20       77.76       77.33       76.89       76.46       76.02       75.58       75.14       74.69    
        74.25       73.79       73.34       72.87       72.41       71.94       71.46       70.98       70.49       70.00    
  43  -1000.0       88.78       88.72       88.61       88.47       88.30       88.11       87.90       87.65       87.39    
        87.10       86.78       86.44       86.07       85.68       85.26       84.84       84.41       83.98       83.54    
        83.10       82.65       82.21       81.76       81.31       80.87       80.42       79.98       79.54       79.10    
        78.66       78.22       77.78       77.34       76.90       76.47       76.03       75.58       75.14       74.69    
        74.24       73.79       73.33       72.87       72.40       71.93       71.45       70.97       70.49       70.00    
  44  -1000.0       88.67       88.60       88.49       88.34       88.17       87.99       87.78       87.54       87.29    
        87.00       86.70       86.36       86.00       85.62       85.22       84.80       84.38       83.96       83.52    
        83.09       82.65       82.21       81.77       81.32       80.88       80.44       79.99       79.55       79.11    
        78.67       78.23       77.79       77.35       76.91       76.47       76.03       75.59       75.14       74.69    
        74.24       73.79       73.33       72.86       72.40       71.93       71.45       70.97       70.49       70.00    
  45  -1000.0       88.60       88.51       88.38       88.23       88.05       87.87       87.67       87.44       87.19    
        86.92       86.62       86.30       85.95       85.58       85.18       84.77       84.36       83.94       83.51    
        83.08       82.64       82.21       81.77       81.33       80.89       80.44       80.00       79.56       79.12    
        78.68       78.24       77.80       77.36       76.92       76.48       76.04       75.59       75.14       74.69    
        74.24       73.78       73.32       72.86       72.39       71.92       71.45       70.97       70.49       70.00    
  46  -1000.0     -1000.0       88.41       88.28       88.13       87.96       87.76       87.56       87.35       87.11    
        86.85       86.56       86.24       85.90       85.54       85.14       84.74       84.33       83.92       83.50    
        83.07       82.64       82.20       81.77       81.33       80.89       80.45       80.01       79.57       79.13    
        78.69       78.25       77.81       77.37       76.93       76.48       76.04       75.59       75.14       74.69    
        74.24       73.78       73.32       72.86       72.39       71.92       71.45       70.97       70.49       70.00    
  47  -1000.0     -1000.0     -1000.0       88.17       88.03       87.87       87.69       87.47       87.26       87.04    
        86.79       86.51       86.20       85.87       85.50       85.12       84.72       84.32       83.90       83.49    
        83.06       82.63       82.20       81.77       81.33       80.89       80.46       80.02       79.58       79.14    
        78.70       78.26       77.81       77.37       76.93       76.49       76.04       75.59       75.14       74.69    
        74.24       73.78       73.32       72.86       72.39       71.92       71.45       70.97       70.49       70.00    
  48  -1000.0     -1000.0     -1000.0     -1000.0       87.92       87.79       87.62       87.43       87.19       86.97    
        86.74       86.47       86.17       85.84       85.48       85.10       84.71       84.31       83.90       83.48    
        83.06       82.63       82.20       81.77       81.33       80.90       80.46       80.02       79.58       79.14    
        78.70       78.26       77.82       77.38       76.93       76.49       76.04       75.60       75.15       74.69    
        74.24       73.78       73.32       72.86       72.39       71.92       71.44       70.97       70.49       70.00    
  49  -1000.0     -1000.0     -1000.0     -1000.0     -1000.0       87.70       87.58       87.40       87.18       86.92    
        86.70       86.45       86.15       85.83       85.47       85.09       84.70       84.30       83.89       83.48    
        83.06       82.63       82.20       81.77       81.33       80.90       80.46       80.02       79.58       79.14    
        78.70       78.26       77.82       77.38       76.93       76.49       76.04       75.60       75.15       74.69    
        74.24       73.78       73.32       72.86       72.39       71.92       71.44       70.97       70.48       70.00    
  50  -1000.0     -1000.0     -1000.0     -1000.0     -1000.0     -1000.0     -1000.0     -1000.0     -1000.0     -1000.0    
      -1000.0     -1000.0     -1000.0     -1000.0     -1000.0     -1000.0     -1000.0     -1000.0     -1000.0     -1000.0    
      -1000.0     -1000.0     -1000.0     -1000.0     -1000.0     -1000.0     -1000.0     -1000.0     -1000.0     -1000.0    
      -1000.0     -1000.0     -1000.0     -1000.0     -1000.0     -1000.0     -1000.0     -1000.0     -1000.0     -1000.0    
      -1000.0     -1000.0     -1000.0     -1000.0     -1000.0     -1000.0     -1000.0     -1000.0     -1000.0       70.00    
1
              HEAD IN LAYER   2 AT END OF TIME STEP   1 IN STRESS PERIOD    1
  ---------------------------------------------------------------------------

            1           2           3           4           5           6           7           8           9          10
           11          12          13          14          15          16          17          18          19          20
           21          22          23          24          25          26          27          28          29          30
           31          32          33          34          35          36          37          38          39          40
           41          42          43          44          45          46          47          48          49          50
 ........................................................................................................................
   1  -1000.0     -1000.0     -1000.0     -1000.0     -1000.0     -1000.0     -1000.0     -1000.0     -1000.0     -1000.0    
      -1000.0     -1000.0     -1000.0     -1000.0     -1000.0     -1000.0     -1000.0     -1000.0     -1000.0     -1000.0    
      -1000.0     -1000.0     -1000.0     -1000.0     -1000.0     -1000.0     -1000.0     -1000.0     -1000.0     -1000.0    
      -1000.0     -1000.0     -1000.0     -1000.0     -1000.0     -1000.0     -1000.0     -1000.0     -1000.0     -1000.0    
      -1000.0     -1000.0     -1000.0     -1000.0     -1000.0     -1000.0     -1000.0     -1000.0     -1000.0       70.00    
   2  -1000.0     -1000.0     -1000.0     -1000.0     -1000.0     -1000.0     -1000.0       87.40       87.17       86.90    
        86.68       86.41       86.11       85.77       85.41       85.02       84.62       84.22       83.80       83.38    
        82.96       82.53       82.10       81.67       81.24       80.80       80.37       79.93       79.49       79.06    
        78.62       78.18       77.74       77.31       76.87       76.43       75.99       75.54       75.10       74.65    
        74.20       73.75       73.29       72.83       72.37       71.90       71.43       70.96       70.48       70.00    
   3  -1000.0     -1000.0     -1000.0     -1000.0     -1000.0     -1000.0       87.64       87.43       87.18       86.95    
        86.71       86.43       86.12       85.78       85.42       85.03       84.63       84.22       83.81       83.39    
        82.96       82.54       82.10       81.67       81.24       80.80       80.37       79.93       79.49       79.05    
        78.62       78.18       77.74       77.30       76.87       76.43       75.98       75.54       75.10       74.65    
        74.20       73.75       73.29       72.83       72.37       71.90       71.43       70.96       70.48       70.00    
   4  -1000.0     -1000.0     -1000.0     -1000.0     -1000.0       87.90       87.70       87.48       87.26       87.02    
        86.76       86.47       86.15       85.81       85.44       85.04       84.64       84.23       83.81       83.39    
        82.97       82.54       82.10       81.67       81.24       80.80       80.36       79.92       79.49       79.05    
        78.61       78.18       77.74       77.30       76.86       76.42       75.98       75.54       75.10       74.65    
        74.20       73.75       73.29       72.83       72.37       71.90       71.43       70.96       70.48       70.00    
   5  -1000.0     -1000.0     -1000.0     -1000.0       88.18       88.00       87.78       87.58       87.35       87.10    
        86.82       86.52       86.19       85.84       85.46       85.06       84.66       84.24       83.82       83.40    
        82.97       82.54       82.10       81.67       81.23       80.79       80.36       79.92       79.48       79.04    
        78.61       78.17       77.73       77.30       76.86       76.42       75.98       75.54       75.10       74.65    
        74.20       73.75       73.29       72.83       72.37       71.90       71.43       70.96       70.48       70.00    
   6  -1000.0     -1000.0     -1000.0       88.45       88.29       88.10       87.90       87.69       87.45       87.18    
        86.90       86.58       86.25       85.88       85.50       85.09       84.68       84.26       83.84       83.41    
        82.98       82.54       82.10       81.67       81.23       80.79       80.35       79.91       79.47       79.03    
        78.60       78.16       77.72       77.29       76.85       76.41       75.98       75.54       75.09       74.65    
        74.20       73.75       73.30       72.84       72.37       71.91       71.44       70.96       70.48       70.00    
   7  -1000.0     -1000.0       88.69       88.57       88.41       88.23       88.03       87.80       87.55       87.28    
        86.98       86.65       86.31       85.93       85.54       85.12       84.70       84.28       83.85       83.42    
        82.98       82.54       82.10       81.66       81.22       80.78       80.34       79.90       79.46       79.02    
        78.58       78.15       77.71       77.28       76.84       76.41       75.97       75.53       75.09       74.65    
        74.20       73.75       73.30       72.84       72.38       71.91       71.44       70.96       70.48       70.00    
   8  -1000.0       88.88       88.82       88.70       88.55       88.37       88.16       87.93       87.67       87.39    
        87.07       86.74       86.37       85.99       85.58       85.16       84.73       84.30       83.87       83.43    
        82.99       82.54       82.10       81.65       81.21       80.77       80.32       79.88       79.44       79.00    
        78.57       78.13       77.70       77.27       76.83       76.40       75.97       75.53       75.09       74.65    
        74.21       73.76       73.30       72.85       72.38       71.92       71.44       70.97       70.49       70.00    
   9  -1000.0       89.03       88.97       88.85       88.70       88.52       88.31       88.07       87.80       87.50    
        87.18       86.83       86.45       86.05       85.63       85.20       84.76       84.33       83.88       83.44    
        82.99       82.54       82.09       81.64       81.20       80.75       80.30       79.86       79.42       78.98    
        78.55       78.12       77.68       77.25       76.82       76.39       75.96       75.53       75.09       74.65    
        74.21       73.76       73.31       72.85       72.39       71.92       71.45       70.97       70.49       70.00    
  10  -1000.0       89.21       89.13       89.02       88.87       88.69       88.47       88.23       87.95       87.63    
        87.29       86.93       86.53       86.11       85.68       85.24       84.79       84.35       83.90       83.45    
        83.00       82.54       82.09       81.63       81.18       80.73       80.28       79.84       79.40       78.96    
        78.52       78.09       77.66       77.24       76.81       76.38       75.95       75.52       75.09       74.66    
        74.22       73.77       73.32       72.86       72.40       71.93       71.46       70.98       70.49       70.00    
  11  -1000.0       89.37       89.31       89.21       89.06       88.88       88.65       88.40       88.11       87.78    
        87.42       87.04       86.62       86.17       85.72       85.27       84.83       84.38       83.92       83.46    
        83.00       82.54       82.08       81.61       81.16       80.70       80.25       79.81       79.36       78.93    
        78.50       78.07       77.64       77.22       76.79       76.37       75.95       75.52       75.09       74.66    
        74.22       73.78       73.33       72.88       72.41       71.94       71.47       70.98       70.49       70.00    
  12  -1000.0       89.58       89.52       89.42       89.27       89.08       88.85       88.59       88.28       87.94    
        87.57       87.16       86.71       86.23       85.73       85.30       84.86       84.41       83.95       83.48    
        83.01       82.53       82.06       81.59       81.13       80.67       80.21       79.77       79.33       78.89    
        78.46       78.03       77.61       77.19       76.77       76.36       75.94       75.52       75.09       74.67    
        74.23       73.80       73.35       72.89       72.43       71.96       71.48       70.99       70.50       70.00    
  13  -1000.0       89.82       89.77       89.67       89.52       89.32       89.08       88.80       88.48       88.13    
        87.73       87.30       86.83       86.30       85.65       85.33       84.91       84.45       83.97       83.49    
        83.01       82.52       82.04       81.56       81.09       80.63       80.17       79.72       79.28       78.85    
        78.42       78.00       77.58       77.17       76.75       76.34       75.93       75.52       75.10       74.68    
        74.25       73.81       73.37       72.92       72.46       71.98       71.50       71.01       70.51       70.00    
  14  -1000.0       90.11       90.05       89.94       89.79       89.58       89.33       89.04       88.70       88.33    
        87.92       87.47       86.99       86.47       85.93       85.46       84.98       84.50       84.00       83.50    
        83.00       82.51       82.01       81.52       81.05       80.57       80.11       79.66       79.22       78.79    
        78.37       77.95       77.54       77.13       76.73       76.32       75.92       75.51       75.10       74.69    
        74.27       73.84       73.40       72.95       72.49       72.01       71.52       71.02       70.51       70.00    
  15  -1000.0       90.43       90.37       90.26       90.09       89.88       89.61       89.30       88.95       88.55    
        88.12       87.66       87.17       86.65       86.11       85.59       85.07       84.56       84.04       83.52    
        83.00       82.48       81.97       81.48       80.99       80.51       80.05       79.60       79.16       78.73    
        78.31       77.90       77.50       77.10       76.70       76.31       75.91       75.51       75.11       74.71    
        74.29       73.87       73.44       72.99       72.53       72.05       71.55       71.05       70.53       70.00    
  16  -1000.0       90.80       90.73       90.61       90.44       90.20       89.92       89.59       89.21       88.80    
        88.35       87.86       87.35       86.82       86.27       85.71       85.16       84.61       84.07       83.52    
        82.98       82.45       81.93       81.41       80.92       80.43       79.97       79.51       79.08       78.66    
        78.24       77.84       77.45       77.06       76.67       76.29       75.90       75.51       75.12       74.73    
        74.33       73.91       73.48       73.04       72.58       72.10       71.59       71.08       70.54       70.00    
  17  -1000.0       91.21       91.14       91.01       90.82       90.57       90.26       89.90       89.50       89.06    
        88.59       88.08       87.54       86.98       86.41       85.83       85.24       84.67       84.09       83.52    
        82.96       82.40       81.86       81.34       80.83       80.34       79.87       79.42       78.99       78.57    
        78.17       77.78       77.39       77.01       76.64       76.27       75.89       75.52       75.14       74.76    
        74.37       73.97       73.55       73.11       72.65       72.16       71.65       71.12       70.56       70.00    
  18  -1000.0       91.67       91.60       91.45       91.24       90.97       90.63       90.25       89.82       89.35    
        88.84       88.30       87.74       87.15       86.55       85.93       85.32       84.71       84.11       83.51    
        82.92       82.34       81.78       81.24       80.72       80.22       79.75       79.30       78.88       78.47    
        78.08       77.70       77.33       76.96       76.60       76.24       75.88       75.52       75.16       74.79    
        74.42       74.03       73.63       73.20       72.74       72.25       71.72       71.17       70.59       70.00    
  19  -1000.0       92.19       92.11       91.95       91.71       91.41       91.04       90.62       90.16       89.65    
        89.11       88.53       87.94       87.32       86.68       86.03       85.39       84.75       84.11       83.48    
        82.86       82.25       81.67       81.11       80.58       80.08       79.61       79.17       78.75       78.36    
        77.98       77.62       77.26       76.91       76.57       76.22       75.88       75.53       75.18       74.83    
        74.48       74.12       73.73       73.31       72.85       72.36       71.82       71.25       70.64       70.00    
  20  -1000.0       92.78       92.69       92.50       92.24       91.90       91.49       91.03       90.52       89.97    
        89.39       88.77       88.14       87.48       86.81       86.12       85.44       84.77       84.11       83.44    
        82.78       82.14       81.53       80.95       80.41       79.91       79.44       79.01       78.60       78.23    
        77.87       77.52       77.19       76.86       76.53       76.20       75.87       75.53       75.19       74.88    
        74.57       74.23       73.86       73.46       73.01       72.51       71.96       71.35       70.69       70.00    
  21  -1000.0       93.44       93.33       93.12       92.82       92.43       91.98       91.46       90.91       90.31    
        89.68       89.02       88.34       87.64       86.93       86.20       85.48       84.78       84.10       83.40    
        82.68       82.00       81.36       80.76       80.20       79.70       79.24       78.82       78.43       78.08    
        77.74       77.42       77.11       76.81       76.50       76.19       75.87       75.53       75.19       74.94    
        74.67       74.37       74.03       73.64       73.21       72.72       72.15       71.51       70.78       70.00    
  22  -1000.0       94.20       94.07       93.81       93.46       93.01       92.50       91.93       91.31       90.66    
        89.98       89.27       88.54       87.80       87.04       86.27       85.51       84.76       84.04       83.29    
        82.53       81.81       81.14       80.51       79.94       79.44       78.99       78.60       78.24       77.91    
        77.60       77.31       77.03       76.76       76.48       76.19       75.89       75.55       75.09       75.01    
        74.80       74.54       74.24       73.88       73.47       72.99       72.42       71.73       70.92       70.00    
  23  -1000.0       95.06       94.90       94.59       94.17       93.65       93.06       92.42       91.74       91.03    
        90.29       89.53       88.74       87.95       87.14       86.33       85.52       84.71       83.92       83.13    
        82.35       81.59       80.87       80.21       79.62       79.13       78.71       78.34       78.02       77.73    
        77.46       77.20       76.95       76.71       76.47       76.22       75.96       75.69       75.40       75.21    
        75.01       74.77       74.50       74.18       73.81       73.36       72.80       72.08       71.15       70.00    
  24  -1000.0       96.07       95.87       95.48       94.95       94.34       93.67       92.94       92.19       91.41    
        90.61       89.78       88.95       88.10       87.24       86.38       85.52       84.66       83.81       82.97    
        82.13       81.32       80.55       79.83       79.21       78.75       78.37       78.05       77.78       77.53    
        77.30       77.09       76.88       76.68       76.47       76.27       76.05       75.84       75.63       75.44    
        75.25       75.04       74.81       74.54       74.23       73.84       73.34       72.64       71.59       70.00    
  25  -1000.0       97.25       97.01       96.47       95.81       95.08       94.30       93.49       92.65       91.80    
        90.93       90.04       89.15       88.25       87.34       86.43       85.51       84.60       83.69       82.79    
        81.90       81.01       80.16       79.35       78.65       78.29       77.97       77.73       77.52       77.33    
        77.15       76.98       76.81       76.65       76.49       76.33       76.16       76.00       75.84       75.68    
        75.52       75.34       75.16       74.95       74.72       74.44       74.07       73.54       72.56       70.00    
  26  -1000.0       96.07       95.87       95.48       94.96       94.35       93.67       92.95       92.20       91.42    
        90.61       89.79       88.96       88.11       87.25       86.38       85.52       84.66       83.80       82.96    
        82.13       81.32       80.55       79.83       79.21       78.75       78.37       78.06       77.78       77.54    
        77.31       77.10       76.89       76.69       76.49       76.30       76.10       75.91       75.71       75.51    
        75.30       75.07       74.83       74.55       74.23       73.84       73.34       72.64       71.59       70.00    
  27  -1000.0       95.07       94.91       94.60       94.18       93.66       93.08       92.44       91.76       91.04    
        90.30       89.54       88.76       87.97       87.16       86.34       85.52       84.71       83.90       83.11    
        82.34       81.59       80.87       80.22       79.63       79.14       78.71       78.35       78.03       77.74    
        77.47       77.22       76.98       76.74       76.51       76.28       76.06       75.83       75.59       75.35    
        75.10       74.83       74.54       74.21       73.82       73.37       72.81       72.08       71.15       70.00    
  28  -1000.0       94.21       94.08       93.83       93.47       93.03       92.52       91.95       91.34       90.69    
        90.01       89.30       88.57       87.82       87.06       86.28       85.51       84.74       83.99       83.24    
        82.52       81.82       81.15       80.53       79.96       79.45       79.01       78.61       78.25       77.93    
        77.62       77.34       77.06       76.80       76.54       76.28       76.02       75.76       75.50       75.22    
        74.93       74.62       74.29       73.92       73.50       73.01       72.43       71.74       70.92       70.00    
  29  -1000.0       93.47       93.36       93.15       92.84       92.46       92.01       91.50       90.94       90.35    
        89.72       89.06       88.38       87.68       86.97       86.23       85.50       84.78       84.06       83.36    
        82.67       82.01       81.38       80.78       80.23       79.72       79.26       78.84       78.46       78.10    
        77.77       77.45       77.15       76.86       76.57       76.28       76.00       75.71       75.42       75.11    
        74.79       74.45       74.09       73.69       73.24       72.74       72.16       71.51       70.78       70.00    
  30  -1000.0       92.81       92.72       92.53       92.27       91.93       91.53       91.07       90.57       90.03    
        89.45       88.83       88.20       87.54       86.87       86.17       85.48       84.79       84.12       83.45    
        82.80       82.17       81.56       80.99       80.44       79.94       79.47       79.03       78.63       78.25    
        77.90       77.56       77.23       76.91       76.60       76.29       75.98       75.67       75.35       75.02    
        74.67       74.31       73.92       73.50       73.04       72.53       71.98       71.36       70.70       70.00    
  31  -1000.0       92.23       92.15       91.99       91.76       91.46       91.09       90.68       90.22       89.72    
        89.18       88.61       88.02       87.40       86.76       86.11       85.45       84.80       84.15       83.52    
        82.90       82.29       81.71       81.15       80.62       80.11       79.64       79.20       78.78       78.39    
        78.02       77.66       77.31       76.97       76.63       76.30       75.97       75.64       75.29       74.94    
        74.58       74.19       73.79       73.35       72.89       72.38       71.84       71.26       70.64       70.00    
  32  -1000.0       91.71       91.64       91.50       91.29       91.02       90.69       90.32       89.89       89.43    
        88.93       88.40       87.84       87.26       86.66       86.03       85.41       84.79       84.18       83.57    
        82.97       82.39       81.83       81.29       80.76       80.26       79.79       79.34       78.92       78.51    
        78.12       77.74       77.38       77.02       76.67       76.32       75.96       75.61       75.25       74.88    
        74.50       74.10       73.68       73.24       72.77       72.27       71.74       71.18       70.60       70.00    
  33  -1000.0       91.26       91.19       91.06       90.87       90.63       90.33       89.98       89.59       89.16    
        88.69       88.20       87.67       87.12       86.55       85.96       85.37       84.77       84.19       83.60    
        83.03       82.47       81.92       81.39       80.88       80.39       79.91       79.46       79.03       78.61    
        78.21       77.82       77.44       77.07       76.70       76.33       75.96       75.59       75.22       74.83    
        74.43       74.02       73.60       73.15       72.68       72.18       71.67       71.13       70.57       70.00    
  34  -1000.0       90.85       90.79       90.67       90.50       90.27       90.00       89.67       89.31       88.91    
        88.47       88.00       87.51       86.99       86.44       85.88       85.32       84.75       84.19       83.63    
        83.07       82.53       82.00       81.48       80.98       80.49       80.02       79.56       79.13       78.70    
        78.29       77.89       77.50       77.11       76.73       76.35       75.96       75.58       75.19       74.79    
        74.38       73.96       73.53       73.08       72.61       72.12       71.61       71.09       70.55       70.00    
  35  -1000.0       90.48       90.43       90.32       90.16       89.95       89.69       89.39       89.05       88.68    
        88.26       87.82       87.35       86.86       86.34       85.80       85.26       84.72       84.18       83.64    
        83.10       82.58       82.06       81.55       81.06       80.57       80.10       79.65       79.21       78.78    
        78.36       77.95       77.55       77.15       76.76       76.36       75.97       75.57       75.17       74.76    
        74.35       73.92       73.48       73.02       72.55       72.07       71.57       71.06       70.53       70.00    
  36  -1000.0       90.16       90.11       90.01       89.86       89.66       89.42       89.14       88.82       88.46    
        88.07       87.65       87.21       86.74       86.24       85.73       85.21       84.68       84.16       83.64    
        83.12       82.61       82.11       81.61       81.12       80.64       80.18       79.72       79.28       78.85    
        78.42       78.00       77.59       77.19       76.78       76.38       75.98       75.57       75.16       74.74    
        74.32       73.88       73.44       72.98       72.51       72.03       71.54       71.03       70.52       70.00    
  37  -1000.0       89.87       89.82       89.73       89.58       89.40       89.17       88.90       88.60       88.26    
        87.89       87.50       87.07       86.62       86.14       85.65       85.15       84.64       84.14       83.63    
        83.13       82.63       82.14       81.65       81.17       80.70       80.24       79.78       79.34       78.90    
        78.47       78.05       77.63       77.22       76.81       76.40       75.98       75.57       75.15       74.73    
        74.30       73.86       73.41       72.95       72.48       72.00       71.51       71.02       70.51       70.00    
  38  -1000.0       89.62       89.57       89.48       89.34       89.16       88.95       88.69       88.40       88.08    
        87.73       87.35       86.94       86.51       86.05       85.58       85.09       84.60       84.12       83.62    
        83.14       82.65       82.17       81.69       81.21       80.75       80.29       79.83       79.39       78.95    
        78.52       78.09       77.67       77.25       76.83       76.41       75.99       75.57       75.14       74.71    
        74.28       73.84       73.39       72.93       72.46       71.98       71.50       71.00       70.50       70.00    
  39  -1000.0       89.40       89.35       89.26       89.12       88.95       88.74       88.50       88.22       87.92    
        87.58       87.21       86.82       86.41       85.97       85.50       85.04       84.56       84.09       83.61    
        83.13       82.66       82.18       81.71       81.25       80.78       80.33       79.88       79.43       78.99    
        78.56       78.13       77.70       77.27       76.85       76.42       76.00       75.57       75.14       74.71    
        74.27       73.82       73.37       72.91       72.44       71.97       71.48       70.99       70.50       70.00    
  40  -1000.0       89.21       89.16       89.07       88.93       88.76       88.56       88.33       88.06       87.76    
        87.44       87.09       86.71       86.31       85.89       85.44       84.98       84.52       84.06       83.59    
        83.13       82.66       82.20       81.73       81.27       80.81       80.36       79.91       79.47       79.03    
        78.59       78.16       77.72       77.29       76.87       76.44       76.01       75.57       75.14       74.70    
        74.26       73.81       73.35       72.89       72.43       71.95       71.47       70.99       70.50       70.00    
  41  -1000.0       89.07       89.00       88.90       88.76       88.59       88.40       88.17       87.91       87.63    
        87.31       86.98       86.61       86.22       85.81       85.37       84.93       84.48       84.03       83.58    
        83.12       82.66       82.20       81.75       81.29       80.84       80.39       79.94       79.50       79.05    
        78.62       78.18       77.75       77.31       76.88       76.45       76.01       75.58       75.14       74.70    
        74.25       73.80       73.34       72.88       72.42       71.94       71.46       70.98       70.49       70.00    
  42  -1000.0       88.91       88.86       88.75       88.61       88.44       88.25       88.03       87.78       87.50    
        87.20       86.87       86.52       86.14       85.74       85.32       84.89       84.45       84.01       83.56    
        83.11       82.66       82.21       81.76       81.30       80.85       80.41       79.96       79.52       79.08    
        78.64       78.20       77.76       77.33       76.89       76.46       76.02       75.58       75.14       74.69    
        74.25       73.79       73.34       72.87       72.41       71.94       71.46       70.98       70.49       70.00    
  43  -1000.0       88.78       88.72       88.61       88.47       88.30       88.11       87.90       87.65       87.39    
        87.10       86.78       86.44       86.07       85.68       85.26       84.84       84.41       83.98       83.54    
        83.10       82.65       82.21       81.76       81.31       80.87       80.42       79.98       79.54       79.10    
        78.66       78.22       77.78       77.34       76.90       76.47       76.03       75.58       75.14       74.69    
        74.24       73.79       73.33       72.87       72.40       71.93       71.45       70.97       70.49       70.00    
  44  -1000.0     -1000.0       88.60       88.49       88.34       88.17       87.99       87.78       87.54       87.29    
        87.00       86.70       86.36       86.00       85.62       85.22       84.80       84.38       83.96       83.52    
        83.09       82.65       82.21       81.77       81.32       80.88       80.44       79.99       79.55       79.11    
        78.67       78.23       77.79       77.35       76.91       76.47       76.03       75.59       75.14       74.69    
        74.24       73.79       73.33       72.86       72.40       71.93       71.45       70.97       70.49       70.00    
  45  -1000.0     -1000.0     -1000.0       88.38       88.23       88.05       87.87       87.67       87.44       87.19    
        86.92       86.62       86.30       85.95       85.58       85.18       84.77       84.36       83.94       83.51    
        83.08       82.64       82.21       81.77       81.33       80.89       80.44       80.00       79.56       79.12    
        78.68       78.24       77.80       77.36       76.92       76.48       76.03       75.59       75.14       74.69    
        74.24       73.78       73.32       72.86       72.39       71.92       71.45       70.97       70.49       70.00    
  46  -1000.0     -1000.0     -1000.0     -1000.0       88.13       87.96       87.76       87.56       87.35       87.11    
        86.85       86.56       86.24       85.90       85.54       85.14       84.74       84.33       83.92       83.50    
        83.07       82.64       82.20       81.77       81.33       80.89       80.45       80.01       79.57       79.13    
        78.69       78.25       77.81       77.37       76.93       76.48       76.04       75.59       75.14       74.69    
        74.24       73.78       73.32       72.86       72.39       71.92       71.45       70.97       70.49       70.00    
  47  -1000.0     -1000.0     -1000.0     -1000.0     -1000.0       87.87       87.69       87.47       87.26       87.04    
        86.79       86.51       86.20       85.87       85.50       85.12       84.72       84.32       83.90       83.49    
        83.06       82.63       82.20       81.77       81.33       80.89       80.46       80.02       79.58       79.14    
        78.70       78.26       77.81       77.37       76.93       76.49       76.04       75.59       75.14       74.69    
        74.24       73.78       73.32       72.86       72.39       71.92       71.45       70.97       70.49       70.00    
  48  -1000.0     -1000.0     -1000.0     -1000.0     -1000.0     -1000.0       87.62       87.43       87.19       86.97    
        86.74       86.47       86.17       85.84       85.48       85.10       84.71       84.31       83.90       83.48    
        83.06       82.63       82.20       81.77       81.33       80.90       80.46       80.02       79.58       79.14    
        78.70       78.26       77.82       77.38       76.93       76.49       76.04       75.60       75.15       74.69    
        74.24       73.78       73.32       72.86       72.39       71.92       71.44       70.97       70.48       70.00    
  49  -1000.0     -1000.0     -1000.0     -1000.0     -1000.0     -1000.0     -1000.0       87.40       87.18       86.92    
        86.70       86.45       86.15       85.83       85.47       85.09       84.70       84.30       83.89       83.48    
        83.06       82.63       82.20       81.77       81.33       80.90       80.46       80.02       79.58       79.14    
        78.70       78.26       77.82       77.38       76.93       76.49       76.04       75.60       75.15       74.69    
        74.24       73.78       73.32       72.86       72.39       71.92       71.44       70.97       70.48       70.00    
  50  -1000.0     -1000.0     -1000.0     -1000.0     -1000.0     -1000.0     -1000.0     -1000.0     -1000.0     -1000.0    
      -1000.0     -1000.0     -1000.0     -1000.0     -1000.0     -1000.0     -1000.0     -1000.0     -1000.0     -1000.0    
      -1000.0     -1000.0     -1000.0     -1000.0     -1000.0     -1000.0     -1000.0     -1000.0     -1000.0     -1000.0    
      -1000.0     -1000.0     -1000.0     -1000.0     -1000.0     -1000.0     -1000.0     -1000.0     -1000.0     -1000.0    
      -1000.0     -1000.0     -1000.0     -1000.0     -1000.0     -1000.0     -1000.0     -1000.0     -1000.0       70.00    
1
              HEAD IN LAYER   3 AT END OF TIME STEP   1 IN STRESS PERIOD    1
  ---------------------------------------------------------------------------

            1           2           3           4           5           6           7           8           9          10
           11          12          13          14          15          16          17          18          19          20
           21          22          23          24          25          26          27          28          29          30
           31          32          33          34          35          36          37          38          39          40
[...]
        82.35       81.59       80.87       80.21       79.62       79.13       78.71       78.34       78.02       77.73    
        77.46       77.20       76.95       76.71       76.47       76.22       75.96       75.69       75.40       75.21    
        75.01       74.77       74.50       74.18       73.81       73.36       72.80       72.08       71.15       70.00    
  24  -1000.0       96.07       95.87       95.48       94.95       94.34       93.67       92.94       92.19       91.41    
        90.61       89.78       88.95       88.10       87.24       86.38       85.52       84.66       83.81       82.97    
        82.13       81.32       80.55       79.83       79.21       78.75       78.37       78.05       77.78       77.53    
        77.30       77.09       76.88       76.68       76.47       76.27       76.06       75.84       75.63       75.44    
        75.25       75.04       74.81       74.54       74.23       73.84       73.34       72.64       71.59       70.00    
  25  -1000.0       97.24       97.01       96.47       95.81       95.07       94.30       93.48       92.65       91.79    
        90.93       90.04       89.15       88.25       87.34       86.43       85.51       84.60       83.69       82.79    
        81.90       81.02       80.17       79.36       78.66       78.30       77.98       77.73       77.52       77.33    
        77.15       76.98       76.81       76.65       76.49       76.32       76.16       76.00       75.83       75.67    
        75.51       75.34       75.15       74.94       74.71       74.42       74.05       73.51       72.52       70.00    
  26  -1000.0       96.07       95.87       95.48       94.96       94.35       93.67       92.95       92.20       91.42    
        90.61       89.79       88.96       88.11       87.25       86.38       85.52       84.66       83.80       82.96    
        82.13       81.32       80.55       79.83       79.21       78.75       78.37       78.06       77.78       77.54    
        77.31       77.10       76.89       76.69       76.49       76.30       76.10       75.91       75.71       75.51    
        75.30       75.07       74.83       74.55       74.23       73.84       73.34       72.64       71.59       70.00    
  27  -1000.0       95.07       94.91       94.60       94.18       93.66       93.08       92.44       91.76       91.04    
        90.30       89.54       88.76       87.97       87.16       86.34       85.52       84.71       83.90       83.11    
        82.34       81.59       80.87       80.22       79.63       79.14       78.71       78.35       78.03       77.74    
        77.47       77.22       76.98       76.74       76.51       76.28       76.06       75.83       75.59       75.35    
        75.10       74.83       74.54       74.21       73.82       73.37       72.81       72.08       71.15       70.00    
  28  -1000.0       94.21       94.08       93.83       93.47       93.03       92.52       91.95       91.34       90.69    
        90.01       89.30       88.57       87.82       87.06       86.28       85.51       84.74       83.99       83.24    
        82.52       81.82       81.15       80.53       79.96       79.45       79.01       78.61       78.25       77.93    
        77.62       77.34       77.06       76.80       76.54       76.28       76.02       75.76       75.50       75.22    
        74.93       74.63       74.29       73.92       73.50       73.01       72.43       71.74       70.92       70.00    
  29  -1000.0       93.47       93.36       93.15       92.84       92.46       92.01       91.50       90.94       90.35    
        89.72       89.06       88.38       87.68       86.97       86.23       85.50       84.78       84.06       83.36    
        82.67       82.01       81.38       80.78       80.23       79.72       79.26       78.84       78.46       78.10    
        77.77       77.45       77.15       76.86       76.57       76.28       76.00       75.71       75.42       75.11    
        74.79       74.45       74.09       73.69       73.24       72.74       72.16       71.51       70.78       70.00    
  30  -1000.0       92.81       92.72       92.53       92.27       91.93       91.53       91.07       90.57       90.03    
        89.44       88.83       88.20       87.54       86.87       86.17       85.48       84.79       84.12       83.45    
        82.80       82.17       81.56       80.99       80.44       79.94       79.47       79.03       78.63       78.25    
        77.90       77.56       77.23       76.91       76.60       76.29       75.98       75.67       75.35       75.02    
        74.67       74.31       73.92       73.50       73.04       72.53       71.98       71.36       70.70       70.00    
  31  -1000.0       92.23       92.15       91.99       91.76       91.46       91.09       90.68       90.22       89.72    
        89.18       88.61       88.02       87.40       86.76       86.11       85.45       84.80       84.15       83.52    
        82.90       82.29       81.71       81.15       80.62       80.11       79.64       79.20       78.78       78.39    
        78.02       77.66       77.31       76.97       76.63       76.30       75.97       75.64       75.29       74.94    
        74.58       74.19       73.79       73.35       72.89       72.38       71.84       71.26       70.64       70.00    
  32  -1000.0       91.71       91.64       91.50       91.29       91.02       90.69       90.32       89.89       89.43    
        88.93       88.40       87.84       87.26       86.66       86.03       85.41       84.79       84.18       83.57    
        82.97       82.39       81.83       81.28       80.76       80.26       79.79       79.34       78.92       78.51    
        78.12       77.74       77.38       77.02       76.67       76.32       75.96       75.61       75.25       74.88    
        74.50       74.10       73.68       73.24       72.77       72.27       71.74       71.18       70.60       70.00    
  33  -1000.0       91.26       91.19       91.06       90.87       90.63       90.33       89.98       89.59       89.16    
        88.69       88.20       87.67       87.12       86.55       85.96       85.37       84.77       84.19       83.60    
        83.03       82.47       81.92       81.39       80.88       80.39       79.91       79.46       79.03       78.61    
        78.21       77.82       77.44       77.07       76.70       76.33       75.96       75.59       75.22       74.83    
        74.43       74.02       73.60       73.15       72.68       72.18       71.67       71.13       70.57       70.00    
  34  -1000.0       90.85       90.79       90.67       90.50       90.27       90.00       89.67       89.31       88.91    
        88.47       88.00       87.51       86.99       86.44       85.88       85.32       84.75       84.19       83.63    
        83.07       82.53       82.00       81.48       80.98       80.49       80.02       79.56       79.13       78.70    
        78.29       77.89       77.50       77.11       76.73       76.35       75.96       75.58       75.19       74.79    
        74.38       73.96       73.53       73.08       72.61       72.12       71.61       71.09       70.55       70.00    
  35  -1000.0       90.48       90.43       90.32       90.16       89.95       89.69       89.39       89.05       88.68    
        88.26       87.82       87.35       86.86       86.34       85.80       85.26       84.72       84.18       83.64    
        83.10       82.58       82.06       81.55       81.06       80.57       80.10       79.65       79.21       78.78    
        78.36       77.95       77.55       77.15       76.76       76.36       75.97       75.57       75.17       74.76    
        74.35       73.92       73.48       73.02       72.55       72.07       71.57       71.06       70.53       70.00    
  36  -1000.0       90.16       90.11       90.01       89.86       89.66       89.42       89.14       88.82       88.46    
        88.07       87.65       87.21       86.74       86.24       85.73       85.21       84.68       84.16       83.64    
        83.12       82.61       82.11       81.61       81.12       80.64       80.18       79.72       79.28       78.85    
        78.42       78.00       77.59       77.19       76.78       76.38       75.98       75.57       75.16       74.74    
        74.32       73.88       73.44       72.98       72.51       72.03       71.54       71.03       70.52       70.00    
  37  -1000.0       89.87       89.82       89.73       89.58       89.40       89.17       88.90       88.60       88.26    
        87.89       87.50       87.07       86.62       86.14       85.65       85.15       84.64       84.14       83.63    
        83.13       82.63       82.14       81.65       81.17       80.70       80.24       79.78       79.34       78.90    
        78.47       78.05       77.63       77.22       76.81       76.40       75.98       75.57       75.15       74.73    
        74.30       73.86       73.41       72.95       72.48       72.00       71.51       71.02       70.51       70.00    
  38  -1000.0       89.62       89.57       89.48       89.34       89.16       88.95       88.69       88.40       88.08    
        87.73       87.35       86.94       86.51       86.05       85.58       85.09       84.60       84.12       83.62    
        83.14       82.65       82.17       81.69       81.21       80.75       80.29       79.83       79.39       78.95    
        78.52       78.09       77.67       77.25       76.83       76.41       75.99       75.57       75.14       74.71    
        74.28       73.84       73.39       72.93       72.46       71.98       71.50       71.00       70.50       70.00    
  39  -1000.0       89.40       89.35       89.26       89.12       88.95       88.74       88.50       88.22       87.92    
        87.58       87.21       86.82       86.41       85.97       85.50       85.04       84.56       84.09       83.61    
        83.13       82.66       82.18       81.71       81.25       80.78       80.33       79.88       79.43       78.99    
        78.56       78.13       77.70       77.27       76.85       76.42       76.00       75.57       75.14       74.71    
        74.27       73.82       73.37       72.91       72.44       71.97       71.48       70.99       70.50       70.00    
  40  -1000.0       89.21       89.16       89.07       88.93       88.76       88.56       88.33       88.06       87.76    
        87.44       87.09       86.71       86.31       85.89       85.44       84.98       84.52       84.06       83.59    
        83.13       82.66       82.20       81.73       81.27       80.81       80.36       79.91       79.47       79.03    
        78.59       78.16       77.72       77.29       76.87       76.44       76.01       75.57       75.14       74.70    
        74.26       73.81       73.35       72.89       72.43       71.95       71.47       70.99       70.50       70.00    
  41  -1000.0       89.07       89.00       88.90       88.76       88.59       88.40       88.17       87.91       87.63    
        87.31       86.98       86.61       86.22       85.81       85.37       84.93       84.48       84.03       83.58    
        83.12       82.66       82.20       81.75       81.29       80.84       80.39       79.94       79.50       79.05    
        78.62       78.18       77.75       77.31       76.88       76.45       76.01       75.58       75.14       74.70    
        74.25       73.80       73.34       72.88       72.42       71.94       71.46       70.98       70.49       70.00    
  42  -1000.0     -1000.0       88.86       88.75       88.61       88.44       88.25       88.03       87.78       87.50    
        87.20       86.87       86.52       86.14       85.74       85.32       84.89       84.45       84.01       83.56    
        83.11       82.66       82.21       81.76       81.30       80.85       80.41       79.96       79.52       79.08    
        78.64       78.20       77.76       77.33       76.89       76.46       76.02       75.58       75.14       74.69    
        74.25       73.79       73.34       72.87       72.41       71.94       71.46       70.98       70.49       70.00    
  43  -1000.0     -1000.0     -1000.0       88.61       88.47       88.30       88.11       87.90       87.65       87.39    
        87.10       86.78       86.44       86.07       85.68       85.26       84.84       84.41       83.98       83.54    
        83.10       82.65       82.21       81.76       81.31       80.87       80.42       79.98       79.54       79.10    
        78.66       78.22       77.78       77.34       76.90       76.47       76.03       75.58       75.14       74.69    
        74.24       73.79       73.33       72.87       72.40       71.93       71.45       70.97       70.49       70.00    
  44  -1000.0     -1000.0     -1000.0     -1000.0       88.34       88.17       87.99       87.78       87.54       87.29    
        87.00       86.70       86.36       86.00       85.62       85.22       84.80       84.38       83.96       83.52    
        83.09       82.65       82.21       81.77       81.32       80.88       80.44       79.99       79.55       79.11    
        78.67       78.23       77.79       77.35       76.91       76.47       76.03       75.59       75.14       74.69    
        74.24       73.79       73.33       72.86       72.40       71.93       71.45       70.97       70.49       70.00    
  45  -1000.0     -1000.0     -1000.0     -1000.0     -1000.0       88.05       87.87       87.67       87.44       87.19    
        86.92       86.62       86.30       85.95       85.57       85.18       84.77       84.36       83.94       83.51    
        83.08       82.64       82.21       81.77       81.33       80.89       80.44       80.00       79.56       79.12    
        78.68       78.24       77.80       77.36       76.92       76.48       76.03       75.59       75.14       74.69    
        74.24       73.78       73.32       72.86       72.39       71.92       71.45       70.97       70.49       70.00    
  46  -1000.0     -1000.0     -1000.0     -1000.0     -1000.0     -1000.0       87.76       87.56       87.35       87.11    
        86.85       86.56       86.24       85.90       85.54       85.14       84.74       84.33       83.92       83.50    
        83.07       82.64       82.20       81.77       81.33       80.89       80.45       80.01       79.57       79.13    
        78.69       78.25       77.81       77.37       76.93       76.48       76.04       75.59       75.14       74.69    
        74.24       73.78       73.32       72.86       72.39       71.92       71.45       70.97       70.49       70.00    
  47  -1000.0     -1000.0     -1000.0     -1000.0     -1000.0     -1000.0     -1000.0       87.47       87.26       87.04    
        86.79       86.51       86.20       85.87       85.50       85.12       84.72       84.32       83.90       83.49    
        83.06       82.63       82.20       81.77       81.33       80.89       80.46       80.02       79.58       79.14    
        78.70       78.26       77.81       77.37       76.93       76.49       76.04       75.59       75.14       74.69    
        74.24       73.78       73.32       72.86       72.39       71.92       71.45       70.97       70.49       70.00    
  48  -1000.0     -1000.0     -1000.0     -1000.0     -1000.0     -1000.0     -1000.0     -1000.0       87.19       86.97    
        86.74       86.47       86.17       85.84       85.48       85.10       84.71       84.31       83.90       83.48    
        83.06       82.63       82.20       81.77       81.33       80.90       80.46       80.02       79.58       79.14    
        78.70       78.26       77.82       77.38       76.93       76.49       76.04       75.60       75.15       74.69    
        74.24       73.78       73.32       72.86       72.39       71.92       71.44       70.97       70.48       70.00    
  49  -1000.0     -1000.0     -1000.0     -1000.0     -1000.0     -1000.0     -1000.0     -1000.0     -1000.0       86.92    
        86.70       86.45       86.15       85.83       85.47       85.09       84.70       84.30       83.89       83.48    
        83.06       82.63       82.20       81.77       81.33       80.90       80.46       80.02       79.58       79.14    
        78.70       78.26       77.82       77.38       76.93       76.49       76.04       75.60       75.15       74.69    
        74.24       73.78       73.32       72.86       72.39       71.92       71.44       70.97       70.48       70.00    
  50  -1000.0     -1000.0     -1000.0     -1000.0     -1000.0     -1000.0     -1000.0     -1000.0     -1000.0     -1000.0    
      -1000.0     -1000.0     -1000.0     -1000.0     -1000.0     -1000.0     -1000.0     -1000.0     -1000.0     -1000.0    
      -1000.0     -1000.0     -1000.0     -1000.0     -1000.0     -1000.0     -1000.0     -1000.0     -1000.0     -1000.0    
      -1000.0     -1000.0     -1000.0     -1000.0     -1000.0     -1000.0     -1000.0     -1000.0     -1000.0     -1000.0    
      -1000.0     -1000.0     -1000.0     -1000.0     -1000.0     -1000.0     -1000.0     -1000.0     -1000.0       70.00    

 HEAD WILL BE SAVED ON UNIT   51 AT END OF TIME STEP    1, STRESS PERIOD    1

 DRAWDOWN WILL BE SAVED ON UNIT   52 AT END OF TIME STEP    1, STRESS PERIOD    1
1
  VOLUMETRIC BUDGET FOR ENTIRE MODEL AT END OF TIME STEP    1, STRESS PERIOD   1
  ------------------------------------------------------------------------------

     CUMULATIVE VOLUMES      L**3       RATES FOR THIS TIME STEP      L**3/T
     ------------------                 ------------------------

           IN:                                      IN:
           ---                                      ---
             STORAGE =           0.0000               STORAGE =           0.0000
       CONSTANT HEAD =           0.0000         CONSTANT HEAD =           0.0000
               WELLS =         375.0000                 WELLS =         375.0000
       RIVER LEAKAGE =       64491.5625         RIVER LEAKAGE =       64491.5625
                  ET =           0.0000                    ET =           0.0000
            RECHARGE =       20160.0000              RECHARGE =       20160.0000

            TOTAL IN =       85026.5625              TOTAL IN =       85026.5625

          OUT:                                     OUT:
          ----                                     ----
             STORAGE =           0.0000               STORAGE =           0.0000
       CONSTANT HEAD =       56131.6602         CONSTANT HEAD =       56131.6602
               WELLS =        3000.0000                 WELLS =        3000.0000
       RIVER LEAKAGE =       18661.6484         RIVER LEAKAGE =       18661.6484
                  ET =        7233.1084                    ET =        7233.1084
            RECHARGE =           0.0000              RECHARGE =           0.0000

           TOTAL OUT =       85026.4219             TOTAL OUT =       85026.4219

            IN - OUT =           0.1406              IN - OUT =           0.1406

 PERCENT DISCREPANCY =           0.00     PERCENT DISCREPANCY =           0.00






         TIME SUMMARY AT END OF TIME STEP    1 IN STRESS PERIOD    1
                    SECONDS     MINUTES      HOURS       DAYS        YEARS
                    -----------------------------------------------------------
   TIME STEP LENGTH  86400.      1440.0      24.000      1.0000     2.73785E-03
 STRESS PERIOD TIME  86400.      1440.0      24.000      1.0000     2.73785E-03
         TOTAL TIME  86400.      1440.0      24.000      1.0000     2.73785E-03
1

 Run end date and time (yyyy/mm/dd hh:mm:ss): 2026/02/25 16:25:26
 Elapsed run time: 14.299 Seconds

