                                  MODFLOW-2005     
      U.S. GEOLOGICAL SURVEY MODULAR FINITE-DIFFERENCE GROUND-WATER FLOW MODEL
                            VERSION 1.12.00 2/3/2017

 LIST FILE: static_ensemble_1133113.list
                         UNIT    2

 OPENING static_ensemble_1133113.dis
 FILE TYPE:DIS   UNIT   11   STATUS:OLD    
 FORMAT:FORMATTED              ACCESS:SEQUENTIAL          

 OPENING static_ensemble_1133113.bas
 FILE TYPE:BAS6   UNIT   13   STATUS:OLD    
 FORMAT:FORMATTED              ACCESS:SEQUENTIAL          

 OPENING static_ensemble_1133113.lpf
 FILE TYPE:LPF   UNIT   15   STATUS:OLD    
 FORMAT:FORMATTED              ACCESS:SEQUENTIAL          

 OPENING static_ensemble_1133113.evt
 FILE TYPE:EVT   UNIT   22   STATUS:OLD    
 FORMAT:FORMATTED              ACCESS:SEQUENTIAL          

 OPENING static_ensemble_1133113.rch
 FILE TYPE:RCH   UNIT   19   STATUS:OLD    
 FORMAT:FORMATTED              ACCESS:SEQUENTIAL          

 OPENING static_ensemble_1133113.riv
 FILE TYPE:RIV   UNIT   18   STATUS:OLD    
 FORMAT:FORMATTED              ACCESS:SEQUENTIAL          

 OPENING static_ensemble_1133113.wel
 FILE TYPE:WEL   UNIT   20   STATUS:OLD    
 FORMAT:FORMATTED              ACCESS:SEQUENTIAL          

 OPENING static_ensemble_1133113.oc
 FILE TYPE:OC   UNIT   14   STATUS:OLD    
 FORMAT:FORMATTED              ACCESS:SEQUENTIAL          

 OPENING static_ensemble_1133113.pcg
 FILE TYPE:PCG   UNIT   27   STATUS:OLD    
 FORMAT:FORMATTED              ACCESS:SEQUENTIAL          

 OPENING static_ensemble_1133113.cbc
 FILE TYPE:DATA(BINARY)   UNIT   53   STATUS:REPLACE
 FORMAT:UNFORMATTED            ACCESS:STREAM              

 OPENING static_ensemble_1133113.hds
 FILE TYPE:DATA(BINARY)   UNIT   51   STATUS:REPLACE
 FORMAT:UNFORMATTED            ACCESS:STREAM              

 OPENING static_ensemble_1133113.ddn
 FILE TYPE:DATA(BINARY)   UNIT   52   STATUS:REPLACE
 FORMAT:UNFORMATTED            ACCESS:STREAM              

 BAS -- BASIC PACKAGE, VERSION 7, 5/2/2005 INPUT READ FROM UNIT   13
 
 MODFLOW was compiled using mixed precision
 Precision of REAL variables:           6
 Precision of DOUBLE PRECISION variables:          15

 DISCRETIZATION INPUT DATA READ FROM UNIT   11
 # DIS package for MODFLOW-2005 generated by Flopy 3.9.5
    3 LAYERS        50 ROWS        50 COLUMNS
    1 STRESS PERIOD(S) IN SIMULATION
 MODEL TIME UNIT IS DAYS
 MODEL LENGTH UNIT IS METERS
  Confining bed flag for each layer:
   0   0   0

                     DELR =   1000.00    

                     DELC =   1000.00    



           TOP ELEVATION OF LAYER 1
 READING ON UNIT   11 WITH FORMAT: (50E15.6)           



             MODEL LAYER BOTTOM EL. FOR LAYER   1
 READING ON UNIT   11 WITH FORMAT: (50E15.6)           



             MODEL LAYER BOTTOM EL. FOR LAYER   2
 READING ON UNIT   11 WITH FORMAT: (50E15.6)           



             MODEL LAYER BOTTOM EL. FOR LAYER   3
 READING ON UNIT   11 WITH FORMAT: (50E15.6)           


 STRESS PERIOD     LENGTH       TIME STEPS     MULTIPLIER FOR DELT    SS FLAG
 ----------------------------------------------------------------------------
        1         1.000000          1                    1.000         SS

 STEADY-STATE SIMULATION



 
 # BAS6 package for MODFLOW-2005 generated by Flopy 3.9.5                        
 THE FREE FORMAT OPTION HAS BEEN SELECTED



                     BOUNDARY ARRAY FOR LAYER   1
 READING ON UNIT   13 WITH FORMAT: (50I10)             



                     BOUNDARY ARRAY FOR LAYER   2
 READING ON UNIT   13 WITH FORMAT: (50I10)             



                     BOUNDARY ARRAY FOR LAYER   3
 READING ON UNIT   13 WITH FORMAT: (50I10)             

 AQUIFER HEAD WILL BE SET TO  -999.99     AT ALL NO-FLOW NODES (IBOUND=0).



                       INITIAL HEAD FOR LAYER   1
 READING ON UNIT   13 WITH FORMAT: (50E15.6)           



                       INITIAL HEAD FOR LAYER   2
 READING ON UNIT   13 WITH FORMAT: (50E15.6)           



                       INITIAL HEAD FOR LAYER   3
 READING ON UNIT   13 WITH FORMAT: (50E15.6)           
 # OC package for MODFLOW-2005 generated by Flopy 3.9.5

 OUTPUT CONTROL IS SPECIFIED ONLY AT TIME STEPS FOR WHICH OUTPUT IS DESIRED
 COMPACT CELL-BY-CELL BUDGET FILES WILL BE WRITTEN
 AUXILIARY DATA WILL BE SAVED IN CELL-BY-CELL BUDGET FILES
 HEAD PRINT FORMAT CODE IS   0    DRAWDOWN PRINT FORMAT CODE IS   0
 HEADS WILL BE SAVED ON UNIT   51    DRAWDOWNS WILL BE SAVED ON UNIT   52

 LPF -- LAYER-PROPERTY FLOW PACKAGE, VERSION 7, 5/2/2005
         INPUT READ FROM UNIT   15
 # LPF package for MODFLOW-2005 generated by Flopy 3.9.5
 CELL-BY-CELL FLOWS WILL BE SAVED ON UNIT   53
 HEAD AT CELLS THAT CONVERT TO DRY= -1.00000E+30
 No named parameters
 STORAGECOEFFICIENT OPTION:
 Read storage coefficient rather than specific storage

   LAYER FLAGS:
 LAYER       LAYTYP        LAYAVG         CHANI        LAYVKA        LAYWET
 ---------------------------------------------------------------------------
    1             1             0     1.000E+00             0             0
    2             1             0     1.000E+00             0             0
    3             1             0     1.000E+00             0             0

   INTERPRETATION OF LAYER FLAGS:
                        INTERBLOCK     HORIZONTAL    DATA IN
         LAYER TYPE   TRANSMISSIVITY   ANISOTROPY   ARRAY VKA   WETTABILITY
 LAYER      (LAYTYP)      (LAYAVG)       (CHANI)      (LAYVKA)      (LAYWET)
 ---------------------------------------------------------------------------
    1   CONVERTIBLE      HARMONIC     1.000E+00    VERTICAL K  NON-WETTABLE
    2   CONVERTIBLE      HARMONIC     1.000E+00    VERTICAL K  NON-WETTABLE
    3   CONVERTIBLE      HARMONIC     1.000E+00    VERTICAL K  NON-WETTABLE

 WETTING CAPABILITY IS NOT ACTIVE IN ANY LAYER



              HYD. COND. ALONG ROWS FOR LAYER   1
 READING ON UNIT   15 WITH FORMAT: (50E15.6)           



                VERTICAL HYD. COND. FOR LAYER   1
 READING ON UNIT   15 WITH FORMAT: (50E15.6)           



              HYD. COND. ALONG ROWS FOR LAYER   2
 READING ON UNIT   15 WITH FORMAT: (50E15.6)           



                VERTICAL HYD. COND. FOR LAYER   2
 READING ON UNIT   15 WITH FORMAT: (50E15.6)           



              HYD. COND. ALONG ROWS FOR LAYER   3
 READING ON UNIT   15 WITH FORMAT: (50E15.6)           



                VERTICAL HYD. COND. FOR LAYER   3
 READING ON UNIT   15 WITH FORMAT: (50E15.6)           

 WEL -- WELL PACKAGE, VERSION 7, 5/2/2005 INPUT READ FROM UNIT   20
 # WEL package for MODFLOW-2005 generated by Flopy 3.9.5
 No named parameters
 MAXIMUM OF      3 ACTIVE WELLS AT ONE TIME


     0 Well parameters

 RIV -- RIVER PACKAGE, VERSION 7, 5/2/2005 INPUT READ FROM UNIT   18
 # RIV package for MODFLOW-2005 generated by Flopy 3.9.5
 No named parameters
 MAXIMUM OF     49 ACTIVE RIVER REACHES AT ONE TIME
 CELL-BY-CELL FLOWS WILL BE SAVED ON UNIT   53


     0 River parameters

 EVT -- EVAPOTRANSPIRATION PACKAGE, VERSION 7, 5/2/2005
         INPUT READ FROM UNIT   22
 # EVT package for MODFLOW-2005 generated by Flopy 3.9.5
 No named parameters
 OPTION 3 -- EVAPOTRANSPIRATION FROM HIGHEST ACTIVE NODE IN EACH VERTICAL COLUMN
 CELL-BY-CELL FLOWS WILL BE SAVED ON UNIT   53


     0 Evapotranspiration parameters

 RCH -- RECHARGE PACKAGE, VERSION 7, 5/2/2005 INPUT READ FROM UNIT   19
 # RCH package for MODFLOW-2005 generated by Flopy 3.9.5
 No named parameters
 OPTION 3 -- RECHARGE TO HIGHEST ACTIVE NODE IN EACH VERTICAL COLUMN
 CELL-BY-CELL FLOWS WILL BE SAVED ON UNIT   53


     0 Recharge parameters

 PCG -- CONJUGATE-GRADIENT SOLUTION PACKAGE, VERSION 7, 5/2/2005
 # PCG package for MODFLOW-2005 generated by Flopy 3.9.5
 MAXIMUM OF   5000 CALLS OF SOLUTION ROUTINE
 MAXIMUM OF    500 INTERNAL ITERATIONS PER CALL TO SOLUTION ROUTINE
 MATRIX PRECONDITIONING TYPE :    1



                                    SOLUTION BY THE CONJUGATE-GRADIENT METHOD
                                   -------------------------------------------
                    MAXIMUM NUMBER OF CALLS TO PCG ROUTINE =     5000
                        MAXIMUM ITERATIONS PER CALL TO PCG =      500
                               MATRIX PRECONDITIONING TYPE =        1
        RELAXATION FACTOR (ONLY USED WITH PRECOND. TYPE 1) =    0.97000E+00
 PARAMETER OF POLYNOMIAL PRECOND. = 2 (2) OR IS CALCULATED :        0
                         HEAD CHANGE CRITERION FOR CLOSURE =    0.10000E-04
                     RESIDUAL CHANGE CRITERION FOR CLOSURE =    0.10000E-04
            PCG HEAD AND RESIDUAL CHANGE PRINTOUT INTERVAL =      999
     PRINTING FROM SOLVER IS LIMITED(1) OR SUPPRESSED (>1) =        3
                            STEADY-STATE DAMPING PARAMETER =    0.10000E-01
                               TRANSIENT DAMPING PARAMETER =    0.10000E-01
1
                            STRESS PERIOD NO.    1, LENGTH =   1.000000    
                            -----------------------------------------------

                              NUMBER OF TIME STEPS =     1

                               MULTIPLIER FOR DELT =     1.000

                            INITIAL TIME STEP SIZE =   1.000000    

 WELL NO.  LAYER   ROW   COL   STRESS RATE         
 --------------------------------------------------
      1      3     22     39      -1500.    
      2      1     13     15      -1500.    
      3      1     25     26       375.0    

      3 WELLS

 REACH NO.  LAYER   ROW   COL     STAGE      CONDUCTANCE     BOTTOM EL.         
 -------------------------------------------------------------------------------
      1      1     25      2       100.5           5000.           98.00    
      2      1     25      3       99.50           5000.           97.00    
      3      1     25      4       98.50           5000.           96.00    
      4      1     25      5       97.50           5000.           95.00    
      5      1     25      6       96.50           5000.           94.00    
      6      1     25      7       95.50           5000.           93.00    
      7      1     25      8       94.50           5000.           92.00    
      8      1     25      9       93.50           5000.           91.00    
      9      1     25     10       92.50           5000.           90.00    
     10      1     25     11       91.50           5000.           89.00    
     11      1     25     12       90.50           5000.           88.00    
     12      1     25     13       89.50           5000.           87.00    
     13      1     25     14       88.50           5000.           86.00    
     14      1     25     15       87.50           5000.           85.00    
     15      1     25     16       86.50           5000.           84.00    
     16      1     25     17       85.50           5000.           83.00    
     17      1     25     18       84.50           5000.           82.00    
     18      1     25     19       83.50           5000.           81.00    
     19      1     25     20       82.50           5000.           80.00    
     20      1     25     21       81.50           5000.           79.00    
     21      1     25     22       80.50           5000.           78.00    
     22      1     25     23       79.50           5000.           77.00    
     23      1     25     24       78.50           5000.           76.00    
     24      1     25     25       77.50           5000.           75.00    
     25      1     25     26       77.40           5000.           74.90    
     26      1     25     27       77.30           5000.           74.80    
     27      1     25     28       77.20           5000.           74.70    
     28      1     25     29       77.10           5000.           74.60    
     29      1     25     30       77.00           5000.           74.50    
     30      1     25     31       76.90           5000.           74.40    
     31      1     25     32       76.80           5000.           74.30    
     32      1     25     33       76.70           5000.           74.20    
     33      1     25     34       76.60           5000.           74.10    
     34      1     25     35       76.50           5000.           74.00    
     35      1     25     36       76.40           5000.           73.90    
     36      1     25     37       76.30           5000.           73.80    
     37      1     25     38       76.20           5000.           73.70    
     38      1     25     39       76.10           5000.           73.60    
     39      1     25     40       76.00           5000.           73.50    
     40      1     25     41       75.90           5000.           73.40    
     41      1     25     42       75.80           5000.           73.30    
     42      1     25     43       75.70           5000.           73.20    
     43      1     25     44       75.60           5000.           73.10    
     44      1     25     45       75.50           5000.           73.00    
     45      1     25     46       75.40           5000.           72.90    
     46      1     25     47       75.30           5000.           72.80    
     47      1     25     48       75.20           5000.           72.70    
     48      1     25     49       75.10           5000.           72.60    
     49      1     25     50       75.00           5000.           72.50    

     49 RIVER REACHES



                         ET SURFACE
 READING ON UNIT   22 WITH FORMAT: (50E15.6)           



            EVAPOTRANSPIRATION RATE
 READING ON UNIT   22 WITH FORMAT: (50E15.6)           

         EXTINCTION DEPTH =   10.0000    



                           RECHARGE
 READING ON UNIT   19 WITH FORMAT: (50E15.6)           
 
 SOLVING FOR HEAD 

 OUTPUT CONTROL FOR STRESS PERIOD    1   TIME STEP    1
    SAVE HEAD FOR ALL LAYERS
    SAVE DRAWDOWN FOR ALL LAYERS
    SAVE BUDGET
    PRINT HEAD FOR ALL LAYERS
    PRINT BUDGET
 UBDSV2 SAVING "   CONSTANT HEAD" ON UNIT  53 AT TIME STEP  1, STRESS PERIOD   1
 UBDSV1 SAVING "FLOW RIGHT FACE " ON UNIT  53 AT TIME STEP  1, STRESS PERIOD   1
 UBDSV1 SAVING "FLOW FRONT FACE " ON UNIT  53 AT TIME STEP  1, STRESS PERIOD   1
 UBDSV1 SAVING "FLOW LOWER FACE " ON UNIT  53 AT TIME STEP  1, STRESS PERIOD   1
 UBDSV4 SAVING "   RIVER LEAKAGE" ON UNIT  53 AT TIME STEP  1, STRESS PERIOD   1
 UBDSV3 SAVING "              ET" ON UNIT  53 AT TIME STEP  1, STRESS PERIOD   1
 UBDSV3 SAVING "        RECHARGE" ON UNIT  53 AT TIME STEP  1, STRESS PERIOD   1
1
              HEAD IN LAYER   1 AT END OF TIME STEP   1 IN STRESS PERIOD    1
  ---------------------------------------------------------------------------

            1           2           3           4           5           6           7           8           9          10
           11          12          13          14          15          16          17          18          19          20
           21          22          23          24          25          26          27          28          29          30
           31          32          33          34          35          36          37          38          39          40
           41          42          43          44          45          46          47          48          49          50
 ........................................................................................................................
   1  -1000.0     -1000.0     -1000.0     -1000.0     -1000.0     -1000.0     -1000.0     -1000.0     -1000.0     -1000.0    
      -1000.0     -1000.0     -1000.0     -1000.0     -1000.0     -1000.0     -1000.0     -1000.0     -1000.0     -1000.0    
      -1000.0     -1000.0     -1000.0     -1000.0     -1000.0     -1000.0     -1000.0     -1000.0     -1000.0     -1000.0    
      -1000.0     -1000.0     -1000.0     -1000.0     -1000.0     -1000.0     -1000.0     -1000.0     -1000.0     -1000.0    
      -1000.0     -1000.0     -1000.0     -1000.0     -1000.0     -1000.0     -1000.0     -1000.0     -1000.0       70.00    
   2  -1000.0     -1000.0     -1000.0     -1000.0     -1000.0       101.8       101.6       101.2       100.6       100.0    
        99.49       98.86       98.14       97.33       96.43       95.45       94.49       93.55       92.63       91.72    
        90.89       90.06       89.25       88.46       87.67       86.90       86.14       85.39       84.65       83.92    
        83.20       82.49       81.79       81.09       80.41       79.72       79.04       78.37       77.70       77.03    
        76.35       75.68       75.00       74.32       73.63       72.93       72.22       71.50       70.76       70.00    
   3  -1000.0     -1000.0     -1000.0     -1000.0       102.2       101.9       101.6       101.1       100.6       100.1    
        99.50       98.85       98.12       97.30       96.40       95.42       94.46       93.52       92.60       91.69    
        90.86       90.04       89.23       88.43       87.65       86.87       86.11       85.36       84.63       83.90    
        83.18       82.47       81.77       81.08       80.39       79.71       79.03       78.36       77.69       77.02    
        76.35       75.67       75.00       74.31       73.63       72.93       72.22       71.50       70.76       70.00    
   4  -1000.0     -1000.0     -1000.0       102.4       102.2       101.9       101.5       101.0       100.6       100.1    
        99.48       98.82       98.07       97.25       96.35       95.36       94.40       93.46       92.54       91.64    
        90.81       89.98       89.18       88.38       87.60       86.83       86.07       85.32       84.58       83.86    
        83.14       82.44       81.74       81.05       80.36       79.68       79.01       78.34       77.67       77.00    
        76.33       75.66       74.98       74.30       73.62       72.92       72.21       71.49       70.76       70.00    
   5  -1000.0     -1000.0       102.6       102.5       102.2       101.9       101.4       101.0       100.6       100.0    
        99.43       98.75       98.00       97.17       96.26       95.27       94.31       93.37       92.45       91.55    
        90.72       89.91       89.10       88.31       87.53       86.76       86.00       85.26       84.52       83.80    
        83.09       82.38       81.69       81.00       80.32       79.64       78.97       78.30       77.64       76.97    
        76.31       75.64       74.97       74.29       73.60       72.91       72.21       71.49       70.75       70.00    
   6  -1000.0       102.7       102.6       102.4       102.1       101.8       101.4       101.0       100.5       99.97    
        99.35       98.66       97.89       97.05       96.14       95.15       94.18       93.25       92.33       91.44    
        90.61       89.80       89.00       88.21       87.43       86.66       85.91       85.17       84.44       83.72    
        83.01       82.31       81.62       80.94       80.26       79.59       78.92       78.26       77.60       76.94    
        76.27       75.61       74.94       74.27       73.59       72.90       72.20       71.48       70.75       70.00    
   7  -1000.0       102.6       102.5       102.3       102.0       101.7       101.4       100.9       100.4       99.88    
        99.24       98.53       97.75       96.90       95.98       94.99       94.02       93.09       92.18       91.30    
        90.48       89.67       88.87       88.08       87.31       86.55       85.80       85.06       84.33       83.62    
        82.91       82.22       81.53       80.86       80.19       79.52       78.86       78.20       77.55       76.89    
        76.24       75.58       74.92       74.25       73.57       72.88       72.19       71.48       70.75       70.00    
   8  -1000.0       102.5       102.4       102.2       101.9       101.6       101.3       100.8       100.3       99.75    
        99.09       98.37       97.57       96.71       95.78       94.78       93.83       92.90       92.00       91.13    
        90.31       89.51       88.71       87.93       87.16       86.40       85.66       84.93       84.20       83.50    
        82.80       82.11       81.43       80.76       80.10       79.44       78.79       78.14       77.49       76.84    
        76.19       75.54       74.88       74.22       73.55       72.87       72.17       71.47       70.74       70.00    
   9  -1000.0       102.3       102.2       102.1       101.8       101.5       101.2       100.7       100.2       99.59    
        98.91       98.17       97.35       96.46       95.52       94.53       93.59       92.68       91.79       90.93    
        90.12       89.32       88.53       87.76       86.99       86.24       85.50       84.77       84.06       83.35    
        82.66       81.98       81.31       80.65       80.00       79.35       78.70       78.06       77.42       76.78    
        76.14       75.50       74.85       74.19       73.52       72.85       72.16       71.46       70.74       70.00    
  10  -1000.0       102.1       102.1       101.9       101.7       101.4       101.0       100.5       100.0       99.40    
        98.70       97.93       97.08       96.17       95.20       94.22       93.30       92.42       91.55       90.71    
        89.90       89.11       88.33       87.56       86.80       86.05       85.31       84.59       83.88       83.19    
        82.51       81.84       81.17       80.52       79.88       79.24       78.61       77.97       77.35       76.72    
        76.08       75.45       74.81       74.16       73.50       72.83       72.15       71.45       70.73       70.00    
  11  -1000.0       102.0       101.9       101.8       101.5       101.2       100.8       100.4       99.81       99.18    
        98.47       97.66       96.77       95.80       94.79       93.84       92.97       92.12       91.29       90.46    
        89.67       88.88       88.10       87.33       86.58       85.83       85.10       84.39       83.69       83.00    
        82.33       81.67       81.02       80.38       79.75       79.12       78.50       77.88       77.26       76.64    
        76.02       75.40       74.77       74.13       73.47       72.81       72.13       71.44       70.73       70.00    
  12  -1000.0       101.8       101.7       101.6       101.3       101.0       100.6       100.2       99.59       98.95    
        98.21       97.37       96.42       95.35       94.19       93.38       92.61       91.81       91.00       90.19    
        89.41       88.62       87.85       87.08       86.33       85.59       84.87       84.16       83.47       82.79    
        82.13       81.48       80.85       80.22       79.60       78.99       78.38       77.77       77.17       76.57    
        75.96       75.34       74.72       74.09       73.45       72.79       72.12       71.43       70.73       70.00    
  13  -1000.0       101.6       101.6       101.4       101.1       100.8       100.4       99.93       99.35       98.69    
        97.94       97.08       96.09       94.86       93.11       92.89       92.26       91.50       90.71       89.91    
        89.13       88.34       87.57       86.81       86.06       85.32       84.60       83.90       83.22       82.56    
        81.91       81.28       80.65       80.04       79.44       78.84       78.25       77.66       77.07       76.48    
        75.89       75.29       74.68       74.06       73.43       72.78       72.12       71.43       70.73       70.00    
  14  -1000.0       101.4       101.3       101.2       100.9       100.6       100.2       99.68       99.10       98.43    
        97.67       96.82       95.86       94.77       93.60       92.79       92.02       91.23       90.42       89.62    
        88.83       88.04       87.27       86.50       85.75       85.02       84.31       83.62       82.95       82.30    
        81.67       81.05       80.44       79.85       79.26       78.68       78.11       77.54       76.97       76.40    
        75.82       75.24       74.65       74.04       73.42       72.77       72.11       71.43       70.73       70.00    
  15  -1000.0       101.2       101.1       100.9       100.7       100.3       99.92       99.41       98.82       98.15    
        97.39       96.56       95.63       94.64       93.61       92.66       91.79       90.95       90.13       89.32    
        88.51       87.72       86.93       86.17       85.42       84.69       83.99       83.31       82.65       82.01    
        81.40       80.80       80.21       79.64       79.07       78.52       77.97       77.42       76.87       76.32    
        75.76       75.19       74.62       74.02       73.41       72.78       72.12       71.44       70.73       70.00    
  16  -1000.0       101.0       100.9       100.7       100.4       100.1       99.64       99.11       98.52       97.84    
        97.09       96.26       95.37       94.42       93.43       92.44       91.52       90.65       89.81       88.99    
        88.17       87.36       86.57       85.79       85.04       84.32       83.62       82.96       82.32       81.70    
        81.10       80.52       79.96       79.41       78.87       78.34       77.81       77.29       76.76       76.23    
        75.70       75.15       74.59       74.02       73.42       72.79       72.14       71.45       70.74       70.00    
  17  -1000.0       100.7       100.6       100.4       100.2       99.79       99.33       98.80       98.18       97.50    
        96.74       95.93       95.05       94.12       93.14       92.14       91.20       90.31       89.46       88.64    
        87.79       86.96       86.16       85.38       84.63       83.91       83.22       82.57       81.95       81.35    
        80.78       80.23       79.69       79.17       78.65       78.15       77.65       77.15       76.66       76.15    
        75.65       75.13       74.59       74.03       73.44       72.83       72.17       71.48       70.76       70.00    
  18  -1000.0       100.5       100.4       100.2       99.88       99.48       99.00       98.45       97.82       97.12    
        96.36       95.53       94.66       93.74       92.77       91.76       90.81       89.92       89.07       88.25    
        87.38       86.53       85.70       84.91       84.16       83.44       82.77       82.14       81.54       80.97    
        80.43       79.90       79.40       78.91       78.43       77.95       77.49       77.02       76.55       76.08    
        75.60       75.11       74.60       74.06       73.49       72.89       72.23       71.53       70.79       70.00    
  19  -1000.0       100.3       100.1       99.91       99.58       99.16       98.65       98.06       97.41       96.69    
        95.91       95.08       94.21       93.28       92.31       91.31       90.36       89.48       88.64       87.83    
        86.92       86.03       85.19       84.39       83.63       82.92       82.27       81.66       81.09       80.55    
        80.04       79.55       79.08       78.63       78.19       77.75       77.32       76.89       76.46       76.02    
        75.58       75.12       74.64       74.13       73.58       72.99       72.33       71.61       70.83       70.00    
  20  -1000.0       100.0       99.90       99.65       99.28       98.81       98.26       97.64       96.95       96.21    
        95.41       94.57       93.68       92.75       91.78       90.77       89.84       88.98       88.19       87.38    
        86.41       85.47       84.59       83.78       83.02       82.32       81.69       81.12       80.58       80.09    
        79.62       79.18       78.75       78.34       77.93       77.54       77.15       76.76       76.37       75.97    
        75.57       75.15       74.71       74.23       73.71       73.14       72.48       71.74       70.91       70.00    
  21  -1000.0       99.85       99.69       99.39       98.97       98.45       97.85       97.18       96.45       95.67    
        94.84       93.98       93.07       92.13       91.16       90.15       89.23       88.41       87.72       86.94    
        85.81       84.81       83.89       83.06       82.31       81.64       81.04       80.51       80.03       79.58    
        79.17       78.77       78.39       78.03       77.67       77.32       76.98       76.63       76.29       75.94    
        75.58       75.21       74.82       74.39       73.91       73.36       72.72       71.95       71.04       70.00    
  22  -1000.0       99.72       99.52       99.15       98.65       98.06       97.39       96.66       95.88       95.06    
        94.20       93.31       92.38       91.43       90.44       89.43       88.50       87.68       87.00       86.24    
        85.05       84.00       83.06       82.22       81.48       80.84       80.30       79.83       79.41       79.03    
        78.67       78.33       78.01       77.70       77.40       77.10       76.81       76.52       76.22       75.93    
        75.62       75.31       74.97       74.60       74.18       73.68       73.07       72.28       71.27       70.00    
  23  -1000.0       99.69       99.41       98.93       98.33       97.64       96.88       96.08       95.24       94.37    
        93.47       92.54       91.60       90.63       89.63       88.60       87.65       86.78       86.00       85.26    
        84.09       83.03       82.07       81.22       80.48       79.91       79.45       79.07       78.73       78.42    
        78.14       77.87       77.61       77.36       77.12       76.88       76.64       76.41       76.17       75.93    
        75.69       75.44       75.17       74.87       74.53       74.11       73.58       72.83       71.70       70.00    
  24  -1000.0       99.84       99.40       98.75       97.99       97.17       96.31       95.42       94.51       93.58    
        92.64       91.68       90.71       89.72       88.72       87.68       86.70       85.78       84.93       84.19    
        82.97       81.90       80.92       80.02       79.26       78.82       78.48       78.21       77.98       77.76    
        77.56       77.37       77.18       77.00       76.83       76.65       76.48       76.30       76.13       75.96    
        75.78       75.60       75.41       75.20       74.96       74.68       74.30       73.72       72.62       70.00    
  25  -1000.0       100.3       99.49       98.56       97.60       96.63       95.65       94.66       93.68       92.69    
        91.69       90.70       89.70       88.70       87.70       86.68       85.68       84.69       83.71       82.81    
        81.61       80.59       79.59       78.60       77.64       77.56       77.38       77.26       77.16       77.05    
        76.94       76.84       76.73       76.63       76.52       76.42       76.31       76.21       76.10       76.00    
        75.89       75.79       75.68       75.58       75.47       75.36       75.24       75.11       74.85       70.00    
  26  -1000.0       99.96       99.52       98.87       98.11       97.29       96.44       95.55       94.64       93.71    
        92.77       91.81       90.83       89.84       88.82       87.77       86.77       85.82       84.94       84.20    
        82.98       81.92       80.96       80.07       79.31       78.87       78.54       78.27       78.04       77.83    
        77.63       77.43       77.25       77.07       76.89       76.71       76.53       76.36       76.18       76.00    
        75.82       75.63       75.43       75.22       74.98       74.69       74.31       73.73       72.62       70.00    
  27  -1000.0       99.92       99.65       99.18       98.58       97.89       97.14       96.34       95.51       94.64    
        93.74       92.81       91.86       90.88       89.86       88.80       87.80       86.87       86.01       85.27    
        84.14       83.12       82.19       81.35       80.63       80.06       79.60       79.21       78.88       78.57    
        78.28       78.01       77.75       77.49       77.24       77.00       76.76       76.51       76.27       76.02    
        75.77       75.50       75.22       74.91       74.56       74.14       73.60       72.84       71.70       70.00    
  28  -1000.0       100.1       99.87       99.51       99.02       98.43       97.77       97.05       96.28       95.47    
        94.61       93.72       92.79       91.81       90.80       89.74       88.74       87.81       86.95       86.18    
        85.14       84.16       83.26       82.44       81.71       81.08       80.53       80.06       79.64       79.25    
        78.89       78.55       78.22       77.90       77.58       77.28       76.97       76.67       76.37       76.06    
        75.74       75.41       75.05       74.67       74.23       73.72       73.10       72.30       71.28       70.00    
  29  -1000.0       100.3       100.1       99.86       99.45       98.94       98.35       97.70       96.98       96.21    
        95.39       94.53       93.62       92.66       91.66       90.60       89.60       88.67       87.80       86.99    
        86.01       85.07       84.20       83.38       82.63       81.96       81.36       80.82       80.33       79.87    
        79.45       79.04       78.65       78.28       77.91       77.55       77.19       76.83       76.47       76.11    
        75.74       75.35       74.93       74.48       73.99       73.42       72.76       71.98       71.05       70.00    
  30  -1000.0       100.6       100.5       100.2       99.86       99.42       98.88       98.28       97.61       96.88    
        96.10       95.26       94.37       93.43       92.43       91.38       90.38       89.44       88.55       87.72    
        86.78       85.87       85.01       84.20       83.44       82.73       82.09       81.50       80.95       80.45    
        79.96       79.51       79.07       78.64       78.22       77.81       77.40       77.00       76.59       76.18    
        75.76       75.32       74.85       74.36       73.82       73.22       72.54       71.78       70.93       70.00    
  31  -1000.0       100.9       100.8       100.6       100.3       99.86       99.38       98.81       98.18       97.49    
        96.74       95.92       95.05       94.12       93.13       92.09       91.09       90.14       89.24       88.38    
        87.47       86.58       85.73       84.92       84.14       83.41       82.74       82.11       81.52       80.97    
        80.44       79.94       79.45       78.98       78.52       78.06       77.61       77.17       76.72       76.26    
        75.79       75.31       74.81       74.27       73.70       73.08       72.41       71.66       70.86       70.00    
  32  -1000.0       101.2       101.1       100.9       100.7       100.3       99.83       99.30       98.70       98.04    
        97.31       96.52       95.66       94.75       93.77       92.72       91.72       90.77       89.85       88.98    
        88.08       87.21       86.37       85.55       84.77       84.02       83.32       82.66       82.04       81.45    
        80.88       80.34       79.81       79.30       78.80       78.31       77.82       77.33       76.85       76.35    
        75.85       75.33       74.79       74.23       73.64       73.00       72.32       71.59       70.82       70.00    
  33  -1000.0       101.6       101.5       101.3       101.0       100.7       100.3       99.75       99.18       98.54    
        97.83       97.06       96.22       95.31       94.34       93.30       92.30       91.34       90.42       89.53    
        88.64       87.78       86.94       86.12       85.32       84.56       83.84       83.16       82.51       81.89    
        81.29       80.71       80.15       79.61       79.07       78.54       78.02       77.50       76.98       76.45    
        75.92       75.37       74.80       74.22       73.60       72.95       72.27       71.55       70.79       70.00    
  34  -1000.0       101.9       101.8       101.6       101.4       101.1       100.6       100.2       99.61       98.99    
        98.30       97.54       96.71       95.82       94.85       93.82       92.82       91.85       90.92       90.03    
        89.15       88.29       87.44       86.62       85.82       85.05       84.31       83.61       82.94       82.29    
        81.66       81.06       80.47       79.89       79.33       78.77       78.22       77.67       77.12       76.56    
        76.00       75.42       74.83       74.22       73.59       72.93       72.25       71.53       70.78       70.00    
  35  -1000.0       102.2       102.1       102.0       101.7       101.4       101.0       100.5       100.0       99.40    
        98.72       97.98       97.16       96.28       95.32       94.29       93.29       92.32       91.38       90.48    
        89.60       88.74       87.90       87.08       86.27       85.49       84.74       84.02       83.33       82.66    
        82.01       81.38       80.76       80.16       79.57       78.98       78.40       77.83       77.25       76.67    
        76.08       75.48       74.87       74.25       73.60       72.93       72.24       71.52       70.77       70.00    
  36  -1000.0       102.5       102.4       102.3       102.0       101.7       101.3       100.9       100.4       99.77    
        99.11       98.37       97.57       96.69       95.73       94.71       93.71       92.74       91.80       90.88    
        90.01       89.15       88.31       87.48       86.67       85.88       85.12       84.39       83.68       82.99    
        82.32       81.67       81.03       80.41       79.79       79.19       78.58       77.98       77.38       76.78    
        76.17       75.55       74.93       74.28       73.62       72.94       72.24       71.52       70.77       70.00    
  37  -1000.0       102.8       102.7       102.6       102.3       102.0       101.7       101.2       100.7       100.1    
        99.46       98.73       97.93       97.06       96.11       95.08       94.09       93.11       92.17       91.25    
        90.38       89.52       88.67       87.85       87.03       86.24       85.47       84.73       84.00       83.30    
        82.61       81.94       81.28       80.64       80.00       79.37       78.75       78.13       77.51       76.89    
        76.26       75.63       74.98       74.32       73.65       72.96       72.25       71.52       70.77       70.00    
  38  -1000.0       103.0       103.0       102.8       102.6       102.3       101.9       101.5       101.0       100.4    
        99.77       99.05       98.26       97.39       96.45       95.42       94.43       93.45       92.51       91.58    
        90.71       89.85       89.00       88.17       87.36       86.56       85.78       85.03       84.29       83.57    
        82.87       82.19       81.51       80.85       80.20       79.55       78.91       78.27       77.63       76.99    
        76.35       75.70       75.04       74.37       73.68       72.99       72.27       71.53       70.78       70.00    
  39  -1000.0       103.3       103.2       103.0       102.8       102.5       102.2       101.8       101.3       100.7    
        100.0       99.33       98.55       97.69       96.75       95.73       94.73       93.76       92.81       91.88    
        91.01       90.14       89.30       88.47       87.65       86.85       86.06       85.30       84.55       83.83    
        83.11       82.41       81.72       81.05       80.38       79.71       79.06       78.40       77.75       77.09    
        76.43       75.77       75.10       74.41       73.72       73.01       72.29       71.55       70.78       70.00    
  40  -1000.0       103.5       103.4       103.2       103.0       102.8       102.4       102.0       101.5       100.9    
        100.3       99.59       98.81       97.95       97.01       96.00       95.00       94.03       93.08       92.15    
        91.27       90.41       89.56       88.73       87.91       87.10       86.31       85.54       84.79       84.05    
        83.32       82.61       81.91       81.22       80.54       79.86       79.19       78.52       77.85       77.18    
        76.51       75.84       75.15       74.46       73.76       73.04       72.31       71.56       70.79       70.00    
  41  -1000.0       103.6       103.6       103.4       103.2       102.9       102.6       102.2       101.7       101.1    
        100.5       99.81       99.03       98.18       97.25       96.23       95.24       94.27       93.32       92.38    
        91.51       90.65       89.80       88.96       88.14       87.33       86.54       85.76       85.00       84.25    
        83.52       82.79       82.08       81.38       80.68       80.00       79.31       78.63       77.95       77.27    
        76.59       75.90       75.21       74.50       73.79       73.07       72.33       71.57       70.80       70.00    
  42  -1000.0       103.8       103.7       103.6       103.4       103.1       102.7       102.3       101.9       101.3    
        100.7       99.99       99.22       98.38       97.45       96.44       95.45       94.48       93.52       92.59    
        91.71       90.85       90.00       89.16       88.34       87.53       86.73       85.95       85.18       84.43    
        83.68       82.95       82.23       81.52       80.81       80.12       79.42       78.73       78.04       77.35    
        76.66       75.96       75.26       74.55       73.83       73.09       72.35       71.59       70.80       70.00    
  43  -1000.0       104.0       103.9       103.7       103.5       103.2       102.9       102.5       102.0       101.5    
        100.8       100.2       99.39       98.55       97.62       96.62       95.63       94.66       93.70       92.77    
        91.89       91.03       90.18       89.34       88.51       87.70       86.90       86.11       85.34       84.58    
        83.83       83.09       82.36       81.64       80.93       80.22       79.52       78.82       78.12       77.42    
        76.72       76.01       75.30       74.58       73.86       73.12       72.37       71.60       70.81       70.00    
  44  -1000.0       104.2       104.1       103.9       103.6       103.3       103.0       102.6       102.1       101.6    
        101.0       100.3       99.52       98.69       97.77       96.76       95.78       94.81       93.85       92.92    
        92.04       91.18       90.33       89.49       88.66       87.84       87.04       86.25       85.47       84.71    
        83.95       83.21       82.47       81.75       81.02       80.31       79.60       78.89       78.18       77.48    
        76.77       76.06       75.34       74.62       73.88       73.14       72.38       71.61       70.82       70.00    
  45  -1000.0       104.3       104.2       104.0       103.7       103.4       103.0       102.6       102.2       101.7    
        101.1       100.4       99.63       98.80       97.88       96.88       95.90       94.93       93.98       93.04    
        92.17       91.31       90.45       89.61       88.78       87.97       87.16       86.37       85.59       84.82    
        84.06       83.31       82.57       81.83       81.10       80.38       79.67       78.95       78.24       77.53    
        76.81       76.10       75.37       74.64       73.91       73.16       72.40       71.62       70.82       70.00    
  46  -1000.0     -1000.0       104.2       104.0       103.8       103.5       103.1       102.7       102.2       101.7    
        101.1       100.5       99.71       98.88       97.97       96.98       95.99       95.03       94.08       93.14    
        92.27       91.41       90.55       89.71       88.88       88.06       87.25       86.46       85.67       84.90    
        84.14       83.38       82.64       81.90       81.17       80.44       79.72       79.00       78.28       77.57    
        76.85       76.13       75.40       74.67       73.93       73.17       72.41       71.63       70.82       70.00    
  47  -1000.0     -1000.0     -1000.0       104.0       103.8       103.5       103.2       102.7       102.2       101.7    
        101.2       100.5       99.77       98.95       98.04       97.05       96.07       95.10       94.15       93.21    
        92.34       91.48       90.63       89.78       88.95       88.13       87.33       86.53       85.74       84.97    
        84.20       83.44       82.69       81.95       81.22       80.49       79.76       79.04       78.32       77.60    
        76.88       76.15       75.42       74.68       73.94       73.18       72.42       71.63       70.83       70.00    
  48  -1000.0     -1000.0     -1000.0     -1000.0       103.8       103.5       103.2       102.8       102.2       101.7    
        101.2       100.5       99.80       98.99       98.08       97.09       96.11       95.15       94.20       93.26    
        92.39       91.53       90.68       89.83       89.00       88.18       87.37       86.57       85.79       85.01    
        84.24       83.48       82.73       81.99       81.25       80.52       79.79       79.06       78.34       77.62    
        76.89       76.17       75.43       74.70       73.95       73.19       72.42       71.64       70.83       70.00    
  49  -1000.0     -1000.0     -1000.0     -1000.0     -1000.0       103.5       103.2       102.8       102.3       101.7    
        101.2       100.5       99.82       99.01       98.10       97.11       96.14       95.17       94.22       93.29    
        92.41       91.55       90.70       89.86       89.03       88.21       87.40       86.60       85.81       85.03    
        84.26       83.50       82.75       82.00       81.27       80.53       79.80       79.08       78.35       77.63    
        76.90       76.17       75.44       74.70       73.95       73.20       72.42       71.64       70.83       70.00    
  50  -1000.0     -1000.0     -1000.0     -1000.0     -1000.0     -1000.0     -1000.0     -1000.0     -1000.0     -1000.0    
      -1000.0     -1000.0     -1000.0     -1000.0     -1000.0     -1000.0     -1000.0     -1000.0     -1000.0     -1000.0    
      -1000.0     -1000.0     -1000.0     -1000.0     -1000.0     -1000.0     -1000.0     -1000.0     -1000.0     -1000.0    
      -1000.0     -1000.0     -1000.0     -1000.0     -1000.0     -1000.0     -1000.0     -1000.0     -1000.0     -1000.0    
      -1000.0     -1000.0     -1000.0     -1000.0     -1000.0     -1000.0     -1000.0     -1000.0     -1000.0       70.00    
1
              HEAD IN LAYER   2 AT END OF TIME STEP   1 IN STRESS PERIOD    1
  ---------------------------------------------------------------------------

            1           2           3           4           5           6           7           8           9          10
           11          12          13          14          15          16          17          18          19          20
           21          22          23          24          25          26          27          28          29          30
           31          32          33          34          35          36          37          38          39          40
           41          42          43          44          45          46          47          48          49          50
 ........................................................................................................................
   1  -1000.0     -1000.0     -1000.0     -1000.0     -1000.0     -1000.0     -1000.0     -1000.0     -1000.0     -1000.0    
      -1000.0     -1000.0     -1000.0     -1000.0     -1000.0     -1000.0     -1000.0     -1000.0     -1000.0     -1000.0    
      -1000.0     -1000.0     -1000.0     -1000.0     -1000.0     -1000.0     -1000.0     -1000.0     -1000.0     -1000.0    
      -1000.0     -1000.0     -1000.0     -1000.0     -1000.0     -1000.0     -1000.0     -1000.0     -1000.0     -1000.0    
      -1000.0     -1000.0     -1000.0     -1000.0     -1000.0     -1000.0     -1000.0     -1000.0     -1000.0       70.00    
   2  -1000.0     -1000.0     -1000.0     -1000.0     -1000.0     -1000.0     -1000.0       101.2       100.6       100.0    
        99.49       98.86       98.14       97.33       96.43       95.45       94.49       93.55       92.63       91.72    
        90.82       89.95       89.09       88.26       87.45       86.65       85.86       85.09       84.34       83.60    
        82.87       82.14       81.43       80.73       80.04       79.35       78.67       78.00       77.33       76.66    
        76.00       75.34       74.68       74.01       73.35       72.69       72.02       71.35       70.68       70.00    
   3  -1000.0     -1000.0     -1000.0     -1000.0     -1000.0     -1000.0       101.6       101.1       100.6       100.1    
        99.50       98.85       98.12       97.30       96.40       95.42       94.46       93.52       92.60       91.69    
        90.80       89.92       89.07       88.24       87.42       86.63       85.84       85.08       84.32       83.58    
        82.85       82.13       81.42       80.72       80.03       79.34       78.66       77.99       77.32       76.65    
        75.99       75.33       74.67       74.01       73.35       72.68       72.02       71.35       70.67       70.00    
   4  -1000.0     -1000.0     -1000.0     -1000.0     -1000.0       101.9       101.5       101.0       100.6       100.1    
        99.48       98.82       98.07       97.25       96.35       95.36       94.40       93.46       92.54       91.64    
        90.74       89.87       89.02       88.19       87.38       86.58       85.80       85.04       84.28       83.54    
        82.81       82.10       81.39       80.69       80.00       79.32       78.64       77.97       77.30       76.64    
        75.98       75.32       74.66       74.00       73.34       72.68       72.01       71.34       70.67       70.00    
   5  -1000.0     -1000.0     -1000.0     -1000.0       102.2       101.9       101.4       101.0       100.6       100.0    
        99.43       98.75       98.00       97.17       96.26       95.27       94.31       93.37       92.45       91.55    
        90.66       89.79       88.95       88.12       87.31       86.52       85.74       84.98       84.23       83.49    
        82.76       82.05       81.34       80.65       79.96       79.28       78.60       77.93       77.27       76.61    
        75.95       75.30       74.64       73.98       73.33       72.67       72.00       71.34       70.67       70.00    
   6  -1000.0     -1000.0     -1000.0       102.4       102.1       101.8       101.4       101.0       100.5       99.97    
        99.35       98.66       97.89       97.05       96.14       95.15       94.18       93.25       92.33       91.44    
        90.55       89.69       88.85       88.03       87.22       86.43       85.66       84.90       84.15       83.42    
        82.70       81.99       81.28       80.59       79.91       79.23       78.56       77.89       77.23       76.58    
        75.92       75.27       74.62       73.96       73.31       72.65       71.99       71.33       70.67       70.00    
   7  -1000.0     -1000.0       102.5       102.3       102.0       101.7       101.4       100.9       100.4       99.88    
        99.24       98.53       97.75       96.90       95.98       94.99       94.02       93.09       92.18       91.30    
        90.42       89.56       88.73       87.91       87.11       86.33       85.56       84.80       84.06       83.33    
        82.61       81.91       81.21       80.52       79.84       79.17       78.50       77.84       77.18       76.53    
        75.88       75.23       74.59       73.94       73.29       72.64       71.98       71.32       70.66       70.00    
   8  -1000.0       102.5       102.4       102.2       101.9       101.6       101.3       100.8       100.3       99.75    
        99.09       98.37       97.57       96.71       95.78       94.78       93.83       92.90       92.00       91.13    
        90.26       89.41       88.58       87.77       86.98       86.20       85.44       84.69       83.95       83.23    
        82.51       81.81       81.12       80.44       79.76       79.09       78.43       77.78       77.13       76.48    
        75.84       75.19       74.55       73.91       73.26       72.62       71.97       71.31       70.66       70.00    
   9  -1000.0       102.3       102.2       102.1       101.8       101.5       101.2       100.7       100.2       99.59    
        98.91       98.17       97.35       96.46       95.52       94.53       93.59       92.68       91.79       90.93    
        90.07       89.23       88.41       87.61       86.82       86.05       85.29       84.55       83.82       83.10    
        82.40       81.70       81.01       80.34       79.67       79.01       78.35       77.70       77.06       76.42    
        75.78       75.15       74.51       73.87       73.24       72.60       71.95       71.30       70.65       70.00    
  10  -1000.0       102.1       102.1       101.9       101.7       101.4       101.0       100.5       100.0       99.40    
        98.70       97.93       97.08       96.17       95.20       94.22       93.30       92.42       91.55       90.71    
        89.86       89.03       88.22       87.42       86.65       85.88       85.13       84.40       83.68       82.96    
        82.26       81.58       80.90       80.23       79.56       78.91       78.26       77.62       76.98       76.35    
        75.72       75.09       74.47       73.84       73.21       72.57       71.93       71.29       70.65       70.00    
  11  -1000.0       102.0       101.9       101.8       101.5       101.2       100.8       100.4       99.81       99.18    
        98.47       97.66       96.77       95.80       94.79       93.84       92.97       92.12       91.29       90.46    
        89.62       88.81       88.01       87.22       86.45       85.70       84.95       84.23       83.51       82.81    
        82.12       81.44       80.76       80.10       79.45       78.80       78.16       77.53       76.90       76.27    
        75.65       75.03       74.42       73.79       73.17       72.55       71.92       71.28       70.64       70.00    
  12  -1000.0       101.8       101.7       101.6       101.3       101.0       100.6       100.2       99.59       98.95    
        98.21       97.37       96.42       95.35       94.19       93.38       92.61       91.81       91.00       90.19    
        89.37       88.56       87.77       87.00       86.24       85.49       84.76       84.04       83.33       82.64    
        81.95       81.28       80.62       79.96       79.32       78.68       78.05       77.42       76.80       76.19    
        75.58       74.97       74.36       73.75       73.14       72.52       71.90       71.27       70.64       70.00    
  13  -1000.0       101.6       101.6       101.4       101.1       100.8       100.4       99.93       99.35       98.69    
        97.94       97.08       96.09       94.86       93.11       92.89       92.26       91.50       90.71       89.91    
        89.10       88.30       87.52       86.75       86.00       85.26       84.54       83.83       83.13       82.45    
        81.78       81.11       80.46       79.81       79.18       78.55       77.92       77.31       76.70       76.10    
        75.50       74.90       74.30       73.70       73.10       72.49       71.88       71.26       70.63       70.00    
  14  -1000.0       101.4       101.3       101.2       100.9       100.6       100.2       99.68       99.10       98.43    
        97.67       96.82       95.86       94.77       93.60       92.79       92.02       91.23       90.42       89.62    
        88.81       88.02       87.25       86.49       85.74       85.02       84.30       83.61       82.92       82.25    
        81.58       80.93       80.29       79.65       79.02       78.40       77.79       77.19       76.59       76.00    
        75.41       74.83       74.24       73.66       73.06       72.46       71.86       71.24       70.62       70.00    
  15  -1000.0       101.2       101.1       100.9       100.7       100.3       99.92       99.41       98.82       98.15    
        97.39       96.56       95.63       94.64       93.61       92.66       91.79       90.95       90.13       89.32    
        88.51       87.72       86.95       86.20       85.47       84.75       84.05       83.36       82.69       82.03    
        81.38       80.74       80.10       79.48       78.86       78.25       77.65       77.06       76.47       75.90    
        75.32       74.75       74.18       73.61       73.03       72.44       71.84       71.23       70.62       70.00    
  16  -1000.0       101.0       100.9       100.7       100.4       100.1       99.64       99.11       98.52       97.84    
        97.09       96.26       95.37       94.42       93.43       92.44       91.52       90.65       89.81       88.99    
        88.18       87.40       86.64       85.90       85.17       84.47       83.78       83.11       82.45       81.80    
        81.16       80.53       79.91       79.30       78.69       78.09       77.50       76.92       76.35       75.78    
        75.23       74.68       74.13       73.57       73.00       72.42       71.83       71.23       70.62       70.00    
  17  -1000.0       100.7       100.6       100.4       100.2       99.79       99.33       98.80       98.18       97.50    
        96.74       95.92       95.05       94.11       93.14       92.14       91.20       90.31       89.46       88.64    
        87.83       87.05       86.30       85.57       84.86       84.17       83.49       82.84       82.19       81.56    
        80.94       80.32       79.71       79.11       78.51       77.92       77.34       76.77       76.21       75.67    
        75.14       74.60       74.07       73.53       72.98       72.41       71.83       71.23       70.62       70.00    
  18  -1000.0       100.5       100.4       100.2       99.88       99.48       99.00       98.45       97.82       97.12    
        96.36       95.53       94.66       93.74       92.77       91.76       90.81       89.92       89.07       88.25    
        87.45       86.67       85.93       85.21       84.52       83.85       83.19       82.55       81.93       81.31    
        80.70       80.10       79.51       78.92       78.33       77.75       77.18       76.62       76.08       75.55    
        75.04       74.53       74.02       73.50       72.96       72.41       71.83       71.23       70.62       70.00    
  19  -1000.0       100.3       100.1       99.91       99.58       99.16       98.65       98.06       97.41       96.69    
        95.91       95.08       94.21       93.28       92.31       91.31       90.36       89.48       88.64       87.83    
        87.03       86.27       85.54       84.84       84.16       83.51       82.88       82.26       81.65       81.06    
        80.47       79.89       79.31       78.73       78.15       77.58       77.02       76.47       75.94       75.44    
        74.95       74.47       73.99       73.49       72.96       72.42       71.85       71.25       70.63       70.00    
  20  -1000.0       100.0       99.90       99.65       99.28       98.81       98.26       97.64       96.95       96.21    
        95.41       94.57       93.68       92.75       91.78       90.77       89.84       88.98       88.19       87.38    
        86.58       85.83       85.12       84.44       83.79       83.17       82.56       81.96       81.38       80.81    
        80.24       79.68       79.11       78.55       77.99       77.42       76.86       76.32       75.80       75.32    
        74.87       74.42       73.97       73.49       72.98       72.45       71.88       71.28       70.65       70.00    
  21  -1000.0       99.85       99.69       99.39       98.97       98.45       97.85       97.18       96.45       95.67    
        94.84       93.98       93.07       92.13       91.16       90.15       89.23       88.41       87.72       86.94    
        86.09       85.35       84.68       84.03       83.42       82.82       82.24       81.67       81.11       80.56    
        80.02       79.48       78.93       78.39       77.84       77.29       76.73       76.19       75.67       75.23    
        74.82       74.40       73.97       73.51       73.03       72.50       71.94       71.33       70.68       70.00    
  22  -1000.0       99.72       99.52       99.15       98.65       98.06       97.39       96.66       95.88       95.06    
        94.20       93.31       92.38       91.43       90.44       89.43       88.50       87.68       87.00       86.24    
        85.48       84.83       84.22       83.63       83.05       82.48       81.93       81.40       80.87       80.34    
        79.82       79.30       78.78       78.25       77.72       77.18       76.64       76.10       75.58       75.18    
        74.80       74.41       74.00       73.56       73.09       72.58       72.01       71.39       70.72       70.00    
  23  -1000.0       99.69       99.41       98.93       98.33       97.64       96.88       96.08       95.24       94.37    
        93.47       92.54       91.60       90.63       89.63       88.60       87.65       86.78       86.00       85.26    
        84.77       84.29       83.78       83.25       82.72       82.19       81.67       81.16       80.66       80.16    
        79.66       79.16       78.66       78.16       77.65       77.13       76.61       76.10       75.62       75.22    
        74.84       74.45       74.06       73.63       73.17       72.67       72.11       71.48       70.77       70.00    
  24  -1000.0       99.84       99.40       98.75       97.99       97.17       96.31       95.42       94.51       93.58    
        92.64       91.68       90.71       89.72       88.72       87.68       86.70       85.78       84.93       84.19    
        84.09       83.83       83.44       82.97       82.47       81.97       81.48       80.99       80.51       80.03    
        79.56       79.08       78.59       78.11       77.62       77.13       76.64       76.16       75.70       75.29    
        74.91       74.52       74.13       73.71       73.26       72.76       72.20       71.57       70.84       70.00    
  25  -1000.0       100.3       99.49       98.56       97.60       96.63       95.65       94.67       93.68       92.69    
        91.70       90.70       89.70       88.70       87.70       86.68       85.68       84.69       83.71       82.81    
        83.63       83.61       83.30       82.86       82.37       81.89       81.42       80.94       80.47       80.01    
        79.54       79.07       78.60       78.12       77.65       77.17       76.70       76.24       75.80       75.39    
        74.99       74.60       74.19       73.77       73.32       72.82       72.27       71.64       70.90       70.00    
  26  -1000.0       99.96       99.52       98.87       98.11       97.29       96.44       95.55       94.64       93.71    
        92.77       91.81       90.83       89.84       88.82       87.77       86.77       85.82       84.94       84.20    
        84.12       83.88       83.50       83.04       82.54       82.05       81.56       81.08       80.60       80.12    
        79.65       79.18       78.70       78.23       77.75       77.28       76.81       76.36       75.91       75.49    
        75.07       74.66       74.23       73.79       73.32       72.81       72.24       71.59       70.85       70.00    
  27  -1000.0       99.92       99.65       99.18       98.58       97.89       97.14       96.34       95.51       94.64    
        93.74       92.81       91.86       90.88       89.86       88.80       87.80       86.87       86.01       85.27    
        84.83       84.38       83.90       83.39       82.87       82.35       81.83       81.33       80.83       80.33    
        79.84       79.36       78.87       78.39       77.91       77.43       76.95       76.49       76.03       75.59    
        75.15       74.71       74.26       73.79       73.29       72.76       72.17       71.52       70.79       70.00    
  28  -1000.0       100.1       99.87       99.51       99.02       98.43       97.77       97.05       96.28       95.47    
        94.61       93.72       92.79       91.81       90.80       89.74       88.74       87.81       86.95       86.18    
        85.56       84.99       84.42       83.85       83.28       82.72       82.18       81.64       81.12       80.60    
        80.09       79.58       79.08       78.58       78.09       77.59       77.11       76.63       76.16       75.69    
        75.22       74.76       74.28       73.78       73.26       72.71       72.11       71.45       70.75       70.00    
  29  -1000.0       100.3       100.1       99.86       99.45       98.94       98.35       97.70       96.98       96.21    
        95.39       94.53       93.62       92.66       91.66       90.60       89.60       88.67       87.80       86.99    
        86.27       85.61       84.97       84.35       83.74       83.14       82.56       82.00       81.45       80.90    
        80.37       79.84       79.32       78.80       78.28       77.78       77.27       76.77       76.28       75.79    
        75.30       74.81       74.30       73.78       73.24       72.66       72.05       71.40       70.71       70.00    
  30  -1000.0       100.6       100.5       100.2       99.86       99.42       98.88       98.28       97.61       96.88    
        96.10       95.26       94.37       93.43       92.43       91.38       90.38       89.44       88.55       87.72    
        86.94       86.21       85.52       84.85       84.21       83.58       82.97       82.37       81.79       81.22    
        80.66       80.11       79.56       79.02       78.49       77.96       77.44       76.92       76.41       75.89    
        75.38       74.86       74.33       73.79       73.22       72.64       72.02       71.37       70.69       70.00    
  31  -1000.0       100.9       100.8       100.6       100.3       99.86       99.38       98.81       98.18       97.49    
        96.73       95.92       95.05       94.12       93.13       92.09       91.09       90.14       89.24       88.38    
        87.56       86.79       86.06       85.35       84.67       84.01       83.37       82.74       82.13       81.54    
        80.95       80.38       79.81       79.25       78.70       78.15       77.61       77.07       76.53       76.00    
        75.46       74.92       74.37       73.80       73.22       72.62       72.00       71.35       70.68       70.00    
  32  -1000.0       101.2       101.1       100.9       100.7       100.3       99.83       99.30       98.70       98.04    
        97.31       96.52       95.66       94.75       93.77       92.72       91.72       90.77       89.85       88.98    
        88.14       87.33       86.57       85.83       85.12       84.43       83.76       83.11       82.47       81.85    
        81.24       80.65       80.06       79.48       78.91       78.34       77.78       77.22       76.66       76.10    
        75.55       74.98       74.41       73.83       73.23       72.62       71.99       71.34       70.67       70.00    
  33  -1000.0       101.6       101.5       101.3       101.0       100.7       100.3       99.75       99.18       98.54    
        97.83       97.05       96.22       95.31       94.34       93.30       92.30       91.34       90.42       89.53    
        88.66       87.83       87.04       86.28       85.54       84.83       84.13       83.46       82.80       82.16    
        81.53       80.91       80.30       79.70       79.11       78.52       77.94       77.36       76.79       76.21    
        75.63       75.05       74.46       73.86       73.25       72.63       71.99       71.34       70.67       70.00    
  34  -1000.0       101.9       101.8       101.6       101.4       101.1       100.6       100.2       99.61       98.99    
        98.30       97.54       96.71       95.82       94.85       93.82       92.82       91.85       90.92       90.03    
        89.14       88.30       87.48       86.70       85.94       85.20       84.49       83.79       83.11       82.45    
        81.80       81.16       80.53       79.92       79.30       78.70       78.10       77.50       76.91       76.31    
        75.72       75.12       74.51       73.90       73.28       72.64       72.00       71.34       70.67       70.00    
  35  -1000.0       102.2       102.1       102.0       101.7       101.4       101.0       100.5       100.0       99.40    
        98.72       97.98       97.16       96.27       95.32       94.29       93.29       92.32       91.38       90.48    
        89.58       88.72       87.89       87.09       86.31       85.56       84.82       84.11       83.41       82.73    
        82.06       81.40       80.76       80.12       79.49       78.87       78.25       77.64       77.03       76.42    
        75.80       75.19       74.57       73.94       73.31       72.66       72.01       71.35       70.68       70.00    
  36  -1000.0       102.5       102.4       102.3       102.0       101.7       101.3       100.9       100.4       99.77    
        99.11       98.37       97.57       96.69       95.73       94.71       93.71       92.74       91.80       90.88    
        89.98       89.11       88.26       87.45       86.65       85.88       85.13       84.40       83.69       82.99    
        82.30       81.63       80.97       80.32       79.67       79.03       78.40       77.77       77.14       76.52    
        75.89       75.26       74.63       73.99       73.34       72.69       72.03       71.36       70.68       70.00    
  37  -1000.0       102.8       102.7       102.6       102.3       102.0       101.7       101.2       100.7       100.1    
        99.46       98.73       97.93       97.06       96.11       95.08       94.09       93.11       92.17       91.25    
        90.34       89.46       88.60       87.77       86.97       86.19       85.42       84.67       83.95       83.23    
        82.53       81.84       81.17       80.50       79.84       79.19       78.54       77.89       77.25       76.61    
        75.97       75.33       74.69       74.03       73.38       72.72       72.05       71.37       70.69       70.00    
  38  -1000.0       103.0       103.0       102.8       102.6       102.3       101.9       101.5       101.0       100.4    
        99.77       99.05       98.26       97.39       96.45       95.42       94.43       93.45       92.51       91.58    
        90.66       89.77       88.91       88.07       87.26       86.46       85.68       84.93       84.18       83.46    
        82.74       82.04       81.35       80.67       80.00       79.33       78.67       78.01       77.36       76.71    
        76.05       75.40       74.74       74.08       73.42       72.74       72.07       71.38       70.69       70.00    
  39  -1000.0       103.3       103.2       103.0       102.8       102.5       102.2       101.8       101.3       100.7    
        100.0       99.33       98.55       97.69       96.75       95.73       94.73       93.76       92.81       91.88    
        90.96       90.06       89.19       88.34       87.52       86.71       85.93       85.16       84.40       83.66    
        82.94       82.22       81.52       80.83       80.14       79.46       78.79       78.12       77.46       76.79    
        76.13       75.46       74.80       74.13       73.45       72.77       72.09       71.39       70.70       70.00    
  40  -1000.0       103.5       103.4       103.2       103.0       102.8       102.4       102.0       101.5       100.9    
        100.3       99.59       98.81       97.95       97.01       96.00       95.00       94.03       93.08       92.15    
        91.22       90.32       89.44       88.59       87.75       86.94       86.14       85.36       84.60       83.85    
        83.11       82.39       81.68       80.97       80.27       79.59       78.90       78.22       77.55       76.87    
        76.20       75.52       74.85       74.17       73.49       72.80       72.11       71.41       70.71       70.00    
  41  -1000.0       103.6       103.6       103.4       103.2       102.9       102.6       102.2       101.7       101.1    
        100.5       99.81       99.03       98.18       97.25       96.23       95.24       94.27       93.32       92.38    
        91.45       90.55       89.66       88.80       87.96       87.14       86.34       85.55       84.78       84.02    
        83.27       82.54       81.82       81.10       80.40       79.70       79.00       78.32       77.63       76.95    
        76.26       75.58       74.90       74.21       73.52       72.82       72.12       71.42       70.71       70.00    
  42  -1000.0       103.8       103.7       103.6       103.4       103.1       102.7       102.3       101.9       101.3    
        100.7       99.99       99.22       98.38       97.45       96.44       95.45       94.48       93.52       92.59    
        91.65       90.75       89.86       88.99       88.15       87.32       86.51       85.71       84.93       84.17    
        83.41       82.67       81.94       81.22       80.50       79.80       79.10       78.40       77.70       77.01    
        76.32       75.63       74.94       74.25       73.55       72.85       72.14       71.43       70.72       70.00    
  43  -1000.0       104.0       103.9       103.7       103.5       103.2       102.9       102.5       102.0       101.5    
        100.8       100.2       99.39       98.55       97.62       96.62       95.63       94.66       93.70       92.77    
        91.83       90.92       90.03       89.16       88.31       87.48       86.66       85.86       85.07       84.30    
        83.54       82.79       82.05       81.32       80.60       79.88       79.18       78.47       77.77       77.07    
        76.37       75.68       74.98       74.28       73.58       72.87       72.16       71.44       70.72       70.00    
  44  -1000.0     -1000.0       104.1       103.9       103.6       103.3       103.0       102.6       102.1       101.6    
        101.0       100.3       99.52       98.69       97.77       96.76       95.78       94.81       93.85       92.92    
        91.98       91.07       90.17       89.30       88.45       87.61       86.79       85.98       85.19       84.41    
        83.64       82.89       82.14       81.41       80.68       79.96       79.24       78.53       77.83       77.12    
        76.42       75.72       75.01       74.31       73.60       72.89       72.17       71.45       70.73       70.00    
  45  -1000.0     -1000.0     -1000.0       104.0       103.7       103.4       103.0       102.6       102.2       101.7    
        101.1       100.4       99.63       98.80       97.88       96.88       95.90       94.93       93.98       93.04    
        92.10       91.19       90.29       89.42       88.56       87.72       86.89       86.08       85.29       84.50    
        83.73       82.97       82.22       81.48       80.75       80.02       79.30       78.59       77.88       77.17    
        76.46       75.75       75.04       74.33       73.62       72.90       72.18       71.46       70.73       70.00    
  46  -1000.0     -1000.0     -1000.0     -1000.0       103.8       103.5       103.1       102.7       102.2       101.7    
        101.1       100.5       99.71       98.88       97.97       96.98       95.99       95.03       94.08       93.14    
        92.20       91.28       90.39       89.51       88.65       87.81       86.98       86.16       85.36       84.58    
        83.80       83.04       82.29       81.54       80.80       80.07       79.35       78.63       77.91       77.20    
        76.49       75.78       75.07       74.35       73.64       72.92       72.19       71.47       70.73       70.00    
  47  -1000.0     -1000.0     -1000.0     -1000.0     -1000.0       103.5       103.2       102.7       102.2       101.7    
        101.2       100.5       99.77       98.95       98.04       97.05       96.07       95.10       94.15       93.21    
        92.27       91.36       90.46       89.58       88.72       87.87       87.04       86.23       85.42       84.63    
        83.86       83.09       82.33       81.58       80.84       80.11       79.38       78.66       77.94       77.23    
        76.51       75.80       75.08       74.37       73.65       72.93       72.20       71.47       70.74       70.00    
  48  -1000.0     -1000.0     -1000.0     -1000.0     -1000.0     -1000.0       103.2       102.8       102.2       101.7    
        101.2       100.5       99.80       98.99       98.08       97.09       96.11       95.15       94.20       93.26    
        92.32       91.40       90.50       89.62       88.76       87.91       87.08       86.27       85.46       84.67    
        83.89       83.12       82.36       81.61       80.87       80.14       79.41       78.68       77.96       77.24    
        76.53       75.81       75.10       74.38       73.66       72.93       72.21       71.47       70.74       70.00    
  49  -1000.0     -1000.0     -1000.0     -1000.0     -1000.0     -1000.0     -1000.0       102.8       102.3       101.7    
        101.2       100.5       99.82       99.01       98.10       97.11       96.14       95.17       94.22       93.29    
        92.35       91.43       90.53       89.65       88.78       87.94       87.10       86.29       85.48       84.69    
        83.91       83.14       82.38       81.63       80.89       80.15       79.42       78.69       77.97       77.25    
        76.54       75.82       75.10       74.38       73.66       72.94       72.21       71.48       70.74       70.00    
  50  -1000.0     -1000.0     -1000.0     -1000.0     -1000.0     -1000.0     -1000.0     -1000.0     -1000.0     -1000.0    
      -1000.0     -1000.0     -1000.0     -1000.0     -1000.0     -1000.0     -1000.0     -1000.0     -1000.0     -1000.0    
      -1000.0     -1000.0     -1000.0     -1000.0     -1000.0     -1000.0     -1000.0     -1000.0     -1000.0     -1000.0    
      -1000.0     -1000.0     -1000.0     -1000.0     -1000.0     -1000.0     -1000.0     -1000.0     -1000.0     -1000.0    
      -1000.0     -1000.0     -1000.0     -1000.0     -1000.0     -1000.0     -1000.0     -1000.0     -1000.0       70.00    
1
              HEAD IN LAYER   3 AT END OF TIME STEP   1 IN STRESS PERIOD    1
  ---------------------------------------------------------------------------

            1           2           3           4           5           6           7           8           9          10
           11          12          13          14          15          16          17          18          19          20
           21          22          23          24          25          26          27          28          29          30
           31          32          33          34          35          36          37          38          39          40
[...]
        85.07       84.86       84.58       84.23       83.82       83.35       82.84       82.30       81.72       81.12    
        80.49       79.83       79.13       78.40       77.62       76.78       75.84       74.78       73.70       73.64    
        73.56       73.37       73.09       72.73       72.34       71.90       71.45       70.98       70.49       70.00    
  24  -1000.0       99.84       99.40       98.75       97.99       97.17       96.31       95.42       94.51       93.58    
        92.64       91.68       90.71       89.72       88.72       87.68       86.70       85.78       84.93       84.19    
        84.45       84.50       84.37       84.10       83.73       83.29       82.81       82.27       81.71       81.12    
        80.50       79.85       79.17       78.46       77.71       76.93       76.11       75.27       74.54       74.14    
        73.84       73.53       73.18       72.80       72.38       71.93       71.47       70.99       70.50       70.00    
  25  -1000.0       100.3       99.49       98.56       97.60       96.63       95.65       94.67       93.68       92.69    
        91.70       90.70       89.70       88.70       87.70       86.69       85.68       84.69       83.71       82.82    
        84.02       84.34       84.30       84.07       83.72       83.30       82.82       82.30       81.74       81.15    
        80.54       79.90       79.24       78.56       77.85       77.12       76.38       75.66       75.02       74.53    
        74.11       73.71       73.30       72.88       72.44       71.98       71.50       71.01       70.51       70.00    
  26  -1000.0       99.96       99.52       98.87       98.11       97.29       96.44       95.55       94.64       93.71    
        92.77       91.81       90.83       89.84       88.82       87.77       86.77       85.82       84.94       84.21    
        84.47       84.55       84.43       84.17       83.81       83.38       82.89       82.37       81.81       81.23    
        80.62       79.99       79.34       78.68       78.00       77.31       76.63       75.97       75.36       74.83    
        74.35       73.89       73.43       72.98       72.51       72.02       71.53       71.03       70.52       70.00    
  27  -1000.0       99.92       99.65       99.18       98.58       97.89       97.14       96.34       95.51       94.64    
        93.74       92.81       91.86       90.88       89.86       88.80       87.80       86.87       86.01       85.27    
        85.13       84.96       84.71       84.38       83.98       83.52       83.02       82.49       81.92       81.34    
        80.73       80.11       79.47       78.82       78.16       77.50       76.85       76.22       75.63       75.07    
        74.55       74.05       73.56       73.08       72.58       72.08       71.57       71.05       70.53       70.00    
  28  -1000.0       100.1       99.87       99.51       99.02       98.43       97.77       97.05       96.28       95.47    
        94.61       93.72       92.79       91.81       90.80       89.74       88.74       87.81       86.95       86.18    
        85.81       85.46       85.08       84.67       84.21       83.72       83.20       82.64       82.07       81.48    
        80.87       80.24       79.61       78.97       78.33       77.69       77.05       76.44       75.84       75.28    
        74.73       74.21       73.69       73.17       72.65       72.13       71.61       71.07       70.54       70.00    
  29  -1000.0       100.3       100.1       99.86       99.45       98.94       98.35       97.70       96.98       96.21    
        95.39       94.53       93.62       92.66       91.66       90.60       89.60       88.67       87.80       86.99    
        86.47       85.98       85.50       85.01       84.50       83.96       83.41       82.83       82.24       81.64    
        81.02       80.40       79.77       79.13       78.50       77.86       77.24       76.63       76.03       75.45    
        74.89       74.34       73.80       73.26       72.73       72.19       71.65       71.10       70.55       70.00    
  30  -1000.0       100.6       100.5       100.2       99.86       99.41       98.88       98.28       97.61       96.88    
        96.10       95.26       94.37       93.43       92.43       91.38       90.38       89.44       88.55       87.72    
        87.09       86.51       85.94       85.38       84.81       84.23       83.64       83.05       82.44       81.82    
        81.20       80.57       79.93       79.30       78.66       78.03       77.41       76.80       76.20       75.61    
        75.03       74.47       73.91       73.35       72.80       72.24       71.68       71.12       70.56       70.00    
  31  -1000.0       100.9       100.8       100.6       100.3       99.86       99.38       98.81       98.18       97.49    
        96.73       95.92       95.05       94.12       93.13       92.09       91.09       90.14       89.24       88.38    
        87.68       87.01       86.38       85.75       85.14       84.52       83.90       83.28       82.65       82.02    
        81.38       80.74       80.10       79.47       78.83       78.20       77.57       76.95       76.35       75.75    
        75.16       74.58       74.00       73.43       72.86       72.29       71.72       71.15       70.57       70.00    
  32  -1000.0       101.2       101.1       100.9       100.7       100.3       99.83       99.30       98.70       98.04    
        97.31       96.52       95.66       94.75       93.77       92.72       91.72       90.77       89.85       88.98    
        88.22       87.49       86.80       86.13       85.47       84.81       84.16       83.52       82.87       82.22    
        81.57       80.92       80.28       79.63       78.99       78.36       77.72       77.10       76.49       75.88    
        75.28       74.68       74.09       73.51       72.92       72.34       71.76       71.17       70.59       70.00    
  33  -1000.0       101.6       101.5       101.3       101.0       100.7       100.3       99.75       99.18       98.54    
        97.83       97.05       96.22       95.31       94.34       93.30       92.30       91.34       90.42       89.53    
        88.72       87.95       87.21       86.50       85.80       85.11       84.43       83.76       83.09       82.43    
        81.76       81.11       80.45       79.80       79.15       78.51       77.87       77.24       76.62       76.00    
        75.39       74.78       74.18       73.58       72.98       72.39       71.79       71.19       70.60       70.00    
  34  -1000.0       101.9       101.8       101.6       101.4       101.1       100.6       100.2       99.61       98.99    
        98.30       97.54       96.71       95.82       94.85       93.82       92.82       91.85       90.92       90.03    
        89.18       88.37       87.60       86.85       86.12       85.40       84.70       84.00       83.31       82.63    
        81.96       81.29       80.62       79.96       79.30       78.65       78.01       77.37       76.74       76.11    
        75.49       74.87       74.26       73.65       73.04       72.43       71.82       71.22       70.61       70.00    
  35  -1000.0       102.2       102.1       102.0       101.7       101.4       101.0       100.5       100.0       99.40    
        98.72       97.98       97.16       96.27       95.32       94.29       93.29       92.32       91.38       90.48    
        89.60       88.77       87.96       87.18       86.42       85.68       84.95       84.24       83.53       82.84    
        82.15       81.46       80.79       80.12       79.45       78.79       78.14       77.49       76.85       76.21    
        75.58       74.96       74.33       73.71       73.09       72.47       71.85       71.24       70.62       70.00    
  36  -1000.0       102.5       102.4       102.3       102.0       101.7       101.3       100.9       100.4       99.77    
        99.11       98.37       97.56       96.69       95.73       94.71       93.71       92.74       91.80       90.88    
        89.99       89.13       88.30       87.49       86.71       85.95       85.20       84.47       83.75       83.03    
        82.33       81.64       80.95       80.27       79.59       78.93       78.26       77.61       76.96       76.31    
        75.67       75.03       74.40       73.77       73.14       72.51       71.88       71.25       70.63       70.00    
  37  -1000.0       102.8       102.7       102.5       102.3       102.0       101.7       101.2       100.7       100.1    
        99.46       98.73       97.93       97.06       96.11       95.08       94.09       93.11       92.17       91.25    
        90.34       89.46       88.61       87.78       86.98       86.20       85.44       84.69       83.95       83.22    
        82.51       81.80       81.10       80.41       79.73       79.05       78.38       77.72       77.06       76.40    
        75.75       75.11       74.46       73.82       73.18       72.55       71.91       71.27       70.64       70.00    
  38  -1000.0       103.0       103.0       102.8       102.6       102.3       101.9       101.5       101.0       100.4    
        99.77       99.05       98.26       97.39       96.45       95.42       94.43       93.45       92.51       91.58    
        90.66       89.76       88.89       88.05       87.23       86.44       85.66       84.89       84.14       83.40    
        82.67       81.96       81.25       80.55       79.85       79.17       78.49       77.82       77.15       76.49    
        75.83       75.17       74.52       73.87       73.22       72.58       71.93       71.29       70.64       70.00    
  39  -1000.0       103.3       103.2       103.0       102.8       102.5       102.2       101.8       101.3       100.7    
        100.0       99.33       98.55       97.69       96.75       95.73       94.73       93.76       92.81       91.88    
        90.94       90.04       89.15       88.30       87.47       86.65       85.86       85.08       84.32       83.57    
        82.83       82.10       81.38       80.67       79.97       79.28       78.59       77.91       77.24       76.57    
        75.90       75.24       74.58       73.92       73.26       72.61       71.96       71.30       70.65       70.00    
  40  -1000.0       103.5       103.4       103.2       103.0       102.8       102.4       102.0       101.5       100.9    
        100.3       99.59       98.80       97.95       97.01       96.00       95.00       94.03       93.08       92.15    
        91.20       90.28       89.39       88.52       87.68       86.85       86.05       85.26       84.48       83.72    
        82.97       82.24       81.51       80.79       80.08       79.38       78.69       78.00       77.31       76.64    
        75.96       75.29       74.63       73.96       73.30       72.64       71.98       71.32       70.66       70.00    
  41  -1000.0       103.6       103.6       103.4       103.2       102.9       102.6       102.2       101.7       101.1    
        100.5       99.81       99.03       98.18       97.25       96.23       95.24       94.27       93.32       92.38    
        91.43       90.50       89.60       88.72       87.87       87.03       86.22       85.42       84.63       83.86    
        83.10       82.36       81.62       80.90       80.18       79.47       78.77       78.08       77.39       76.70    
        76.02       75.34       74.67       74.00       73.33       72.66       72.00       71.33       70.67       70.00    
  42  -1000.0     -1000.0       103.7       103.6       103.4       103.1       102.7       102.3       101.9       101.3    
        100.7       99.99       99.22       98.38       97.45       96.44       95.45       94.48       93.52       92.59    
        91.63       90.69       89.78       88.90       88.03       87.19       86.37       85.56       84.77       83.99    
        83.22       82.47       81.73       80.99       80.27       79.56       78.85       78.15       77.45       76.76    
        76.07       75.39       74.71       74.03       73.36       72.69       72.01       71.34       70.67       70.00    
  43  -1000.0     -1000.0     -1000.0       103.7       103.5       103.2       102.9       102.5       102.0       101.5    
        100.8       100.2       99.39       98.55       97.62       96.62       95.63       94.66       93.70       92.77    
        91.80       90.86       89.95       89.05       88.18       87.33       86.50       85.68       84.88       84.10    
        83.33       82.57       81.82       81.08       80.35       79.63       78.92       78.21       77.51       76.81    
        76.12       75.43       74.75       74.06       73.38       72.71       72.03       71.35       70.68       70.00    
  44  -1000.0     -1000.0     -1000.0     -1000.0       103.6       103.3       103.0       102.6       102.1       101.6    
        101.0       100.3       99.52       98.69       97.77       96.76       95.78       94.81       93.85       92.92    
        91.95       91.00       90.08       89.18       88.31       87.45       86.61       85.79       84.99       84.19    
        83.42       82.65       81.90       81.15       80.42       79.69       78.97       78.26       77.56       76.86    
        76.16       75.47       74.78       74.09       73.41       72.72       72.04       71.36       70.68       70.00    
  45  -1000.0     -1000.0     -1000.0     -1000.0     -1000.0       103.4       103.0       102.6       102.2       101.7    
        101.1       100.4       99.63       98.80       97.88       96.88       95.90       94.93       93.98       93.04    
        92.07       91.12       90.20       89.29       88.41       87.55       86.71       85.88       85.07       84.27    
        83.49       82.72       81.96       81.21       80.48       79.75       79.02       78.31       77.60       76.89    
        76.19       75.50       74.80       74.11       73.42       72.74       72.05       71.37       70.68       70.00    
  46  -1000.0     -1000.0     -1000.0     -1000.0     -1000.0     -1000.0       103.1       102.7       102.2       101.7    
        101.1       100.5       99.71       98.88       97.97       96.98       95.99       95.03       94.08       93.14    
        92.16       91.21       90.29       89.38       88.50       87.63       86.78       85.95       85.14       84.34    
        83.55       82.78       82.02       81.26       80.52       79.79       79.06       78.34       77.63       76.92    
        76.22       75.52       74.82       74.13       73.44       72.75       72.06       71.37       70.69       70.00    
  47  -1000.0     -1000.0     -1000.0     -1000.0     -1000.0     -1000.0     -1000.0       102.7       102.2       101.7    
        101.2       100.5       99.77       98.95       98.04       97.05       96.07       95.10       94.15       93.21    
        92.24       91.28       90.35       89.45       88.56       87.69       86.84       86.01       85.19       84.39    
        83.60       82.82       82.06       81.30       80.56       79.82       79.09       78.37       77.65       76.94    
        76.24       75.54       74.84       74.14       73.45       72.76       72.07       71.38       70.69       70.00    
  48  -1000.0     -1000.0     -1000.0     -1000.0     -1000.0     -1000.0     -1000.0     -1000.0       102.2       101.7    
        101.2       100.5       99.80       98.99       98.08       97.09       96.11       95.15       94.20       93.26    
        92.28       91.33       90.40       89.49       88.60       87.73       86.88       86.04       85.22       84.42    
        83.63       82.85       82.08       81.33       80.58       79.84       79.11       78.39       77.67       76.96    
        76.25       75.55       74.85       74.15       73.46       72.76       72.07       71.38       70.69       70.00    
  49  -1000.0     -1000.0     -1000.0     -1000.0     -1000.0     -1000.0     -1000.0     -1000.0     -1000.0       101.7    
        101.2       100.5       99.82       99.01       98.10       97.11       96.14       95.17       94.22       93.29    
        92.31       91.35       90.42       89.51       88.62       87.75       86.90       86.06       85.24       84.44    
        83.64       82.86       82.10       81.34       80.59       79.85       79.12       78.40       77.68       76.97    
        76.26       75.56       74.85       74.16       73.46       72.77       72.07       71.38       70.69       70.00    
  50  -1000.0     -1000.0     -1000.0     -1000.0     -1000.0     -1000.0     -1000.0     -1000.0     -1000.0     -1000.0    
      -1000.0     -1000.0     -1000.0     -1000.0     -1000.0     -1000.0     -1000.0     -1000.0     -1000.0     -1000.0    
      -1000.0     -1000.0     -1000.0     -1000.0     -1000.0     -1000.0     -1000.0     -1000.0     -1000.0     -1000.0    
      -1000.0     -1000.0     -1000.0     -1000.0     -1000.0     -1000.0     -1000.0     -1000.0     -1000.0     -1000.0    
      -1000.0     -1000.0     -1000.0     -1000.0     -1000.0     -1000.0     -1000.0     -1000.0     -1000.0       70.00    

 HEAD WILL BE SAVED ON UNIT   51 AT END OF TIME STEP    1, STRESS PERIOD    1

 DRAWDOWN WILL BE SAVED ON UNIT   52 AT END OF TIME STEP    1, STRESS PERIOD    1
1
  VOLUMETRIC BUDGET FOR ENTIRE MODEL AT END OF TIME STEP    1, STRESS PERIOD   1
  ------------------------------------------------------------------------------

     CUMULATIVE VOLUMES      L**3       RATES FOR THIS TIME STEP      L**3/T
     ------------------                 ------------------------

           IN:                                      IN:
           ---                                      ---
             STORAGE =           0.0000               STORAGE =           0.0000
       CONSTANT HEAD =           0.0000         CONSTANT HEAD =           0.0000
               WELLS =         375.0000                 WELLS =         375.0000
       RIVER LEAKAGE =        3466.7026         RIVER LEAKAGE =        3466.7026
                  ET =           0.0000                    ET =           0.0000
            RECHARGE =       33199.9961              RECHARGE =       33199.9961

            TOTAL IN =       37041.6992              TOTAL IN =       37041.6992

          OUT:                                     OUT:
          ----                                     ----
             STORAGE =           0.0000               STORAGE =           0.0000
       CONSTANT HEAD =       12781.1123         CONSTANT HEAD =       12781.1123
               WELLS =        3000.0000                 WELLS =        3000.0000
       RIVER LEAKAGE =       20689.0293         RIVER LEAKAGE =       20689.0293
                  ET =         571.5367                    ET =         571.5367
            RECHARGE =           0.0000              RECHARGE =           0.0000

           TOTAL OUT =       37041.6758             TOTAL OUT =       37041.6758

            IN - OUT =       2.3438E-02              IN - OUT =       2.3438E-02

 PERCENT DISCREPANCY =           0.00     PERCENT DISCREPANCY =           0.00






         TIME SUMMARY AT END OF TIME STEP    1 IN STRESS PERIOD    1
                    SECONDS     MINUTES      HOURS       DAYS        YEARS
                    -----------------------------------------------------------
   TIME STEP LENGTH  86400.      1440.0      24.000      1.0000     2.73785E-03
 STRESS PERIOD TIME  86400.      1440.0      24.000      1.0000     2.73785E-03
         TOTAL TIME  86400.      1440.0      24.000      1.0000     2.73785E-03
1

 Run end date and time (yyyy/mm/dd hh:mm:ss): 2026/02/25 16:24:32
 Elapsed run time: 12.814 Seconds

