                                  MODFLOW-2005     
      U.S. GEOLOGICAL SURVEY MODULAR FINITE-DIFFERENCE GROUND-WATER FLOW MODEL
                            VERSION 1.12.00 2/3/2017

 LIST FILE: static_ensemble_3322123.list
                         UNIT    2

 OPENING static_ensemble_3322123.dis
 FILE TYPE:DIS   UNIT   11   STATUS:OLD    
 FORMAT:FORMATTED              ACCESS:SEQUENTIAL          

 OPENING static_ensemble_3322123.bas
 FILE TYPE:BAS6   UNIT   13   STATUS:OLD    
 FORMAT:FORMATTED              ACCESS:SEQUENTIAL          

 OPENING static_ensemble_3322123.lpf
 FILE TYPE:LPF   UNIT   15   STATUS:OLD    
 FORMAT:FORMATTED              ACCESS:SEQUENTIAL          

 OPENING static_ensemble_3322123.evt
 FILE TYPE:EVT   UNIT   22   STATUS:OLD    
 FORMAT:FORMATTED              ACCESS:SEQUENTIAL          

 OPENING static_ensemble_3322123.rch
 FILE TYPE:RCH   UNIT   19   STATUS:OLD    
 FORMAT:FORMATTED              ACCESS:SEQUENTIAL          

 OPENING static_ensemble_3322123.riv
 FILE TYPE:RIV   UNIT   18   STATUS:OLD    
 FORMAT:FORMATTED              ACCESS:SEQUENTIAL          

 OPENING static_ensemble_3322123.wel
 FILE TYPE:WEL   UNIT   20   STATUS:OLD    
 FORMAT:FORMATTED              ACCESS:SEQUENTIAL          

 OPENING static_ensemble_3322123.oc
 FILE TYPE:OC   UNIT   14   STATUS:OLD    
 FORMAT:FORMATTED              ACCESS:SEQUENTIAL          

 OPENING static_ensemble_3322123.pcg
 FILE TYPE:PCG   UNIT   27   STATUS:OLD    
 FORMAT:FORMATTED              ACCESS:SEQUENTIAL          

 OPENING static_ensemble_3322123.cbc
 FILE TYPE:DATA(BINARY)   UNIT   53   STATUS:REPLACE
 FORMAT:UNFORMATTED            ACCESS:STREAM              

 OPENING static_ensemble_3322123.hds
 FILE TYPE:DATA(BINARY)   UNIT   51   STATUS:REPLACE
 FORMAT:UNFORMATTED            ACCESS:STREAM              

 OPENING static_ensemble_3322123.ddn
 FILE TYPE:DATA(BINARY)   UNIT   52   STATUS:REPLACE
 FORMAT:UNFORMATTED            ACCESS:STREAM              

 BAS -- BASIC PACKAGE, VERSION 7, 5/2/2005 INPUT READ FROM UNIT   13
 
 MODFLOW was compiled using mixed precision
 Precision of REAL variables:           6
 Precision of DOUBLE PRECISION variables:          15

 DISCRETIZATION INPUT DATA READ FROM UNIT   11
 # DIS package for MODFLOW-2005 generated by Flopy 3.9.5
    3 LAYERS        50 ROWS        50 COLUMNS
    1 STRESS PERIOD(S) IN SIMULATION
 MODEL TIME UNIT IS DAYS
 MODEL LENGTH UNIT IS METERS
  Confining bed flag for each layer:
   0   0   0

                     DELR =   1000.00    

                     DELC =   1000.00    



           TOP ELEVATION OF LAYER 1
 READING ON UNIT   11 WITH FORMAT: (50E15.6)           



             MODEL LAYER BOTTOM EL. FOR LAYER   1
 READING ON UNIT   11 WITH FORMAT: (50E15.6)           



             MODEL LAYER BOTTOM EL. FOR LAYER   2
 READING ON UNIT   11 WITH FORMAT: (50E15.6)           



             MODEL LAYER BOTTOM EL. FOR LAYER   3
 READING ON UNIT   11 WITH FORMAT: (50E15.6)           


 STRESS PERIOD     LENGTH       TIME STEPS     MULTIPLIER FOR DELT    SS FLAG
 ----------------------------------------------------------------------------
        1         1.000000          1                    1.000         SS

 STEADY-STATE SIMULATION



 
 # BAS6 package for MODFLOW-2005 generated by Flopy 3.9.5                        
 THE FREE FORMAT OPTION HAS BEEN SELECTED



                     BOUNDARY ARRAY FOR LAYER   1
 READING ON UNIT   13 WITH FORMAT: (50I10)             



                     BOUNDARY ARRAY FOR LAYER   2
 READING ON UNIT   13 WITH FORMAT: (50I10)             



                     BOUNDARY ARRAY FOR LAYER   3
 READING ON UNIT   13 WITH FORMAT: (50I10)             

 AQUIFER HEAD WILL BE SET TO  -999.99     AT ALL NO-FLOW NODES (IBOUND=0).



                       INITIAL HEAD FOR LAYER   1
 READING ON UNIT   13 WITH FORMAT: (50E15.6)           



                       INITIAL HEAD FOR LAYER   2
 READING ON UNIT   13 WITH FORMAT: (50E15.6)           



                       INITIAL HEAD FOR LAYER   3
 READING ON UNIT   13 WITH FORMAT: (50E15.6)           
 # OC package for MODFLOW-2005 generated by Flopy 3.9.5

 OUTPUT CONTROL IS SPECIFIED ONLY AT TIME STEPS FOR WHICH OUTPUT IS DESIRED
 COMPACT CELL-BY-CELL BUDGET FILES WILL BE WRITTEN
 AUXILIARY DATA WILL BE SAVED IN CELL-BY-CELL BUDGET FILES
 HEAD PRINT FORMAT CODE IS   0    DRAWDOWN PRINT FORMAT CODE IS   0
 HEADS WILL BE SAVED ON UNIT   51    DRAWDOWNS WILL BE SAVED ON UNIT   52

 LPF -- LAYER-PROPERTY FLOW PACKAGE, VERSION 7, 5/2/2005
         INPUT READ FROM UNIT   15
 # LPF package for MODFLOW-2005 generated by Flopy 3.9.5
 CELL-BY-CELL FLOWS WILL BE SAVED ON UNIT   53
 HEAD AT CELLS THAT CONVERT TO DRY= -1.00000E+30
 No named parameters
 STORAGECOEFFICIENT OPTION:
 Read storage coefficient rather than specific storage

   LAYER FLAGS:
 LAYER       LAYTYP        LAYAVG         CHANI        LAYVKA        LAYWET
 ---------------------------------------------------------------------------
    1             1             0     1.000E+00             0             0
    2             1             0     1.000E+00             0             0
    3             1             0     1.000E+00             0             0

   INTERPRETATION OF LAYER FLAGS:
                        INTERBLOCK     HORIZONTAL    DATA IN
         LAYER TYPE   TRANSMISSIVITY   ANISOTROPY   ARRAY VKA   WETTABILITY
 LAYER      (LAYTYP)      (LAYAVG)       (CHANI)      (LAYVKA)      (LAYWET)
 ---------------------------------------------------------------------------
    1   CONVERTIBLE      HARMONIC     1.000E+00    VERTICAL K  NON-WETTABLE
    2   CONVERTIBLE      HARMONIC     1.000E+00    VERTICAL K  NON-WETTABLE
    3   CONVERTIBLE      HARMONIC     1.000E+00    VERTICAL K  NON-WETTABLE

 WETTING CAPABILITY IS NOT ACTIVE IN ANY LAYER



              HYD. COND. ALONG ROWS FOR LAYER   1
 READING ON UNIT   15 WITH FORMAT: (50E15.6)           



                VERTICAL HYD. COND. FOR LAYER   1
 READING ON UNIT   15 WITH FORMAT: (50E15.6)           



              HYD. COND. ALONG ROWS FOR LAYER   2
 READING ON UNIT   15 WITH FORMAT: (50E15.6)           



                VERTICAL HYD. COND. FOR LAYER   2
 READING ON UNIT   15 WITH FORMAT: (50E15.6)           



              HYD. COND. ALONG ROWS FOR LAYER   3
 READING ON UNIT   15 WITH FORMAT: (50E15.6)           



                VERTICAL HYD. COND. FOR LAYER   3
 READING ON UNIT   15 WITH FORMAT: (50E15.6)           

 WEL -- WELL PACKAGE, VERSION 7, 5/2/2005 INPUT READ FROM UNIT   20
 # WEL package for MODFLOW-2005 generated by Flopy 3.9.5
 No named parameters
 MAXIMUM OF      3 ACTIVE WELLS AT ONE TIME


     0 Well parameters

 RIV -- RIVER PACKAGE, VERSION 7, 5/2/2005 INPUT READ FROM UNIT   18
 # RIV package for MODFLOW-2005 generated by Flopy 3.9.5
 No named parameters
 MAXIMUM OF     49 ACTIVE RIVER REACHES AT ONE TIME
 CELL-BY-CELL FLOWS WILL BE SAVED ON UNIT   53


     0 River parameters

 EVT -- EVAPOTRANSPIRATION PACKAGE, VERSION 7, 5/2/2005
         INPUT READ FROM UNIT   22
 # EVT package for MODFLOW-2005 generated by Flopy 3.9.5
 No named parameters
 OPTION 3 -- EVAPOTRANSPIRATION FROM HIGHEST ACTIVE NODE IN EACH VERTICAL COLUMN
 CELL-BY-CELL FLOWS WILL BE SAVED ON UNIT   53


     0 Evapotranspiration parameters

 RCH -- RECHARGE PACKAGE, VERSION 7, 5/2/2005 INPUT READ FROM UNIT   19
 # RCH package for MODFLOW-2005 generated by Flopy 3.9.5
 No named parameters
 OPTION 3 -- RECHARGE TO HIGHEST ACTIVE NODE IN EACH VERTICAL COLUMN
 CELL-BY-CELL FLOWS WILL BE SAVED ON UNIT   53


     0 Recharge parameters

 PCG -- CONJUGATE-GRADIENT SOLUTION PACKAGE, VERSION 7, 5/2/2005
 # PCG package for MODFLOW-2005 generated by Flopy 3.9.5
 MAXIMUM OF   5000 CALLS OF SOLUTION ROUTINE
 MAXIMUM OF    500 INTERNAL ITERATIONS PER CALL TO SOLUTION ROUTINE
 MATRIX PRECONDITIONING TYPE :    1



                                    SOLUTION BY THE CONJUGATE-GRADIENT METHOD
                                   -------------------------------------------
                    MAXIMUM NUMBER OF CALLS TO PCG ROUTINE =     5000
                        MAXIMUM ITERATIONS PER CALL TO PCG =      500
                               MATRIX PRECONDITIONING TYPE =        1
        RELAXATION FACTOR (ONLY USED WITH PRECOND. TYPE 1) =    0.97000E+00
 PARAMETER OF POLYNOMIAL PRECOND. = 2 (2) OR IS CALCULATED :        0
                         HEAD CHANGE CRITERION FOR CLOSURE =    0.10000E-04
                     RESIDUAL CHANGE CRITERION FOR CLOSURE =    0.10000E-04
            PCG HEAD AND RESIDUAL CHANGE PRINTOUT INTERVAL =      999
     PRINTING FROM SOLVER IS LIMITED(1) OR SUPPRESSED (>1) =        3
                            STEADY-STATE DAMPING PARAMETER =    0.10000E-01
                               TRANSIENT DAMPING PARAMETER =    0.10000E-01
1
                            STRESS PERIOD NO.    1, LENGTH =   1.000000    
                            -----------------------------------------------

                              NUMBER OF TIME STEPS =     1

                               MULTIPLIER FOR DELT =     1.000

                            INITIAL TIME STEP SIZE =   1.000000    

 WELL NO.  LAYER   ROW   COL   STRESS RATE         
 --------------------------------------------------
      1      3     22     39      -1500.    
      2      1     13     15      -4500.    
      3      1     25     26       375.0    

      3 WELLS

 REACH NO.  LAYER   ROW   COL     STAGE      CONDUCTANCE     BOTTOM EL.         
 -------------------------------------------------------------------------------
      1      1     25      2       100.5          0.1000E+06       98.00    
      2      1     25      3       99.50          0.1000E+06       97.00    
      3      1     25      4       98.50          0.1000E+06       96.00    
      4      1     25      5       97.50          0.1000E+06       95.00    
      5      1     25      6       96.50          0.1000E+06       94.00    
      6      1     25      7       95.50          0.1000E+06       93.00    
      7      1     25      8       94.50          0.1000E+06       92.00    
      8      1     25      9       93.50          0.1000E+06       91.00    
      9      1     25     10       92.50          0.1000E+06       90.00    
     10      1     25     11       91.50          0.1000E+06       89.00    
     11      1     25     12       90.50          0.1000E+06       88.00    
     12      1     25     13       89.50          0.1000E+06       87.00    
     13      1     25     14       88.50          0.1000E+06       86.00    
     14      1     25     15       87.50          0.1000E+06       85.00    
     15      1     25     16       86.50          0.1000E+06       84.00    
     16      1     25     17       85.50          0.1000E+06       83.00    
     17      1     25     18       84.50          0.1000E+06       82.00    
     18      1     25     19       83.50          0.1000E+06       81.00    
     19      1     25     20       82.50          0.1000E+06       80.00    
     20      1     25     21       81.50          0.1000E+06       79.00    
     21      1     25     22       80.50          0.1000E+06       78.00    
     22      1     25     23       79.50          0.1000E+06       77.00    
     23      1     25     24       78.50          0.1000E+06       76.00    
     24      1     25     25       77.50          0.1000E+06       75.00    
     25      1     25     26       77.40          0.1000E+06       74.90    
     26      1     25     27       77.30          0.1000E+06       74.80    
     27      1     25     28       77.20          0.1000E+06       74.70    
     28      1     25     29       77.10          0.1000E+06       74.60    
     29      1     25     30       77.00          0.1000E+06       74.50    
     30      1     25     31       76.90          0.1000E+06       74.40    
     31      1     25     32       76.80          0.1000E+06       74.30    
     32      1     25     33       76.70          0.1000E+06       74.20    
     33      1     25     34       76.60          0.1000E+06       74.10    
     34      1     25     35       76.50          0.1000E+06       74.00    
     35      1     25     36       76.40          0.1000E+06       73.90    
     36      1     25     37       76.30          0.1000E+06       73.80    
     37      1     25     38       76.20          0.1000E+06       73.70    
     38      1     25     39       76.10          0.1000E+06       73.60    
     39      1     25     40       76.00          0.1000E+06       73.50    
     40      1     25     41       75.90          0.1000E+06       73.40    
     41      1     25     42       75.80          0.1000E+06       73.30    
     42      1     25     43       75.70          0.1000E+06       73.20    
     43      1     25     44       75.60          0.1000E+06       73.10    
     44      1     25     45       75.50          0.1000E+06       73.00    
     45      1     25     46       75.40          0.1000E+06       72.90    
     46      1     25     47       75.30          0.1000E+06       72.80    
     47      1     25     48       75.20          0.1000E+06       72.70    
     48      1     25     49       75.10          0.1000E+06       72.60    
     49      1     25     50       75.00          0.1000E+06       72.50    

     49 RIVER REACHES



                         ET SURFACE
 READING ON UNIT   22 WITH FORMAT: (50E15.6)           



            EVAPOTRANSPIRATION RATE
 READING ON UNIT   22 WITH FORMAT: (50E15.6)           

         EXTINCTION DEPTH =   10.0000    



                           RECHARGE
 READING ON UNIT   19 WITH FORMAT: (50E15.6)           
 
 SOLVING FOR HEAD 

 OUTPUT CONTROL FOR STRESS PERIOD    1   TIME STEP    1
    SAVE HEAD FOR ALL LAYERS
    SAVE DRAWDOWN FOR ALL LAYERS
    SAVE BUDGET
    PRINT HEAD FOR ALL LAYERS
    PRINT BUDGET
 UBDSV2 SAVING "   CONSTANT HEAD" ON UNIT  53 AT TIME STEP  1, STRESS PERIOD   1
 UBDSV1 SAVING "FLOW RIGHT FACE " ON UNIT  53 AT TIME STEP  1, STRESS PERIOD   1
 UBDSV1 SAVING "FLOW FRONT FACE " ON UNIT  53 AT TIME STEP  1, STRESS PERIOD   1
 UBDSV1 SAVING "FLOW LOWER FACE " ON UNIT  53 AT TIME STEP  1, STRESS PERIOD   1
 UBDSV4 SAVING "   RIVER LEAKAGE" ON UNIT  53 AT TIME STEP  1, STRESS PERIOD   1
 UBDSV3 SAVING "              ET" ON UNIT  53 AT TIME STEP  1, STRESS PERIOD   1
 UBDSV3 SAVING "        RECHARGE" ON UNIT  53 AT TIME STEP  1, STRESS PERIOD   1
1
              HEAD IN LAYER   1 AT END OF TIME STEP   1 IN STRESS PERIOD    1
  ---------------------------------------------------------------------------

            1           2           3           4           5           6           7           8           9          10
           11          12          13          14          15          16          17          18          19          20
           21          22          23          24          25          26          27          28          29          30
           31          32          33          34          35          36          37          38          39          40
           41          42          43          44          45          46          47          48          49          50
 ........................................................................................................................
   1  -1000.0     -1000.0     -1000.0     -1000.0     -1000.0     -1000.0     -1000.0     -1000.0     -1000.0     -1000.0    
      -1000.0     -1000.0     -1000.0     -1000.0     -1000.0     -1000.0     -1000.0     -1000.0     -1000.0     -1000.0    
      -1000.0     -1000.0     -1000.0     -1000.0     -1000.0     -1000.0     -1000.0     -1000.0     -1000.0     -1000.0    
      -1000.0     -1000.0     -1000.0     -1000.0     -1000.0     -1000.0     -1000.0     -1000.0     -1000.0     -1000.0    
      -1000.0     -1000.0     -1000.0     -1000.0     -1000.0     -1000.0     -1000.0     -1000.0     -1000.0       70.00    
   2  -1000.0     -1000.0     -1000.0     -1000.0     -1000.0       86.76       86.65       86.47       86.26       86.02    
        85.82       85.58       85.31       85.01       84.69       84.35       84.00       83.63       83.26       82.88    
        82.49       82.10       81.70       81.29       80.89       80.48       80.07       79.65       79.24       78.83    
        78.41       77.99       77.58       77.16       76.73       76.31       75.88       75.45       75.02       74.59    
        74.15       73.70       73.26       72.80       72.35       71.89       71.42       70.95       70.48       70.00    
   3  -1000.0     -1000.0     -1000.0     -1000.0       87.01       86.86       86.70       86.51       86.29       86.08    
        85.86       85.61       85.33       85.03       84.70       84.36       84.01       83.64       83.27       82.88    
        82.49       82.10       81.70       81.29       80.89       80.48       80.07       79.65       79.24       78.83    
        78.41       77.99       77.57       77.15       76.73       76.31       75.88       75.46       75.02       74.59    
        74.15       73.71       73.26       72.81       72.35       71.89       71.42       70.95       70.48       70.00    
   4  -1000.0     -1000.0     -1000.0       87.29       87.14       86.98       86.80       86.59       86.38       86.16    
        85.92       85.66       85.37       85.06       84.73       84.39       84.03       83.66       83.28       82.89    
        82.50       82.10       81.70       81.30       80.89       80.48       80.07       79.65       79.24       78.82    
        78.41       77.99       77.57       77.15       76.73       76.31       75.89       75.46       75.03       74.59    
        74.15       73.71       73.26       72.81       72.35       71.89       71.42       70.95       70.48       70.00    
   5  -1000.0     -1000.0       87.58       87.44       87.28       87.11       86.91       86.71       86.49       86.26    
        86.00       85.72       85.43       85.11       84.77       84.42       84.06       83.68       83.30       82.91    
        82.51       82.11       81.71       81.30       80.89       80.48       80.06       79.65       79.23       78.82    
        78.40       77.99       77.57       77.15       76.73       76.31       75.89       75.46       75.03       74.60    
        74.16       73.71       73.27       72.81       72.36       71.89       71.43       70.96       70.48       70.00    
   6  -1000.0       87.84       87.72       87.59       87.43       87.25       87.06       86.85       86.62       86.37    
        86.10       85.81       85.50       85.17       84.83       84.46       84.09       83.71       83.32       82.93    
        82.53       82.12       81.71       81.30       80.89       80.47       80.06       79.64       79.23       78.81    
        78.40       77.98       77.57       77.15       76.73       76.31       75.89       75.46       75.03       74.60    
        74.16       73.72       73.27       72.82       72.36       71.90       71.43       70.96       70.48       70.00    
   7  -1000.0       87.94       87.87       87.75       87.60       87.42       87.22       87.00       86.76       86.49    
        86.21       85.91       85.59       85.24       84.89       84.52       84.14       83.75       83.35       82.95    
        82.54       82.13       81.72       81.30       80.89       80.47       80.05       79.64       79.22       78.81    
        78.39       77.98       77.56       77.15       76.73       76.31       75.89       75.47       75.04       74.61    
        74.17       73.73       73.28       72.83       72.37       71.91       71.44       70.96       70.48       70.00    
   8  -1000.0       88.11       88.05       87.94       87.78       87.60       87.39       87.17       86.91       86.64    
        86.34       86.02       85.68       85.33       84.96       84.58       84.19       83.79       83.39       82.98    
        82.56       82.15       81.73       81.31       80.89       80.47       80.05       79.63       79.21       78.80    
        78.38       77.97       77.56       77.14       76.73       76.31       75.89       75.47       75.05       74.62    
        74.18       73.74       73.30       72.84       72.38       71.92       71.45       70.97       70.49       70.00    
   9  -1000.0       88.32       88.27       88.14       87.99       87.80       87.59       87.35       87.09       86.80    
        86.49       86.15       85.80       85.42       85.04       84.64       84.24       83.84       83.42       83.00    
        82.58       82.16       81.73       81.31       80.88       80.46       80.03       79.61       79.20       78.78    
        78.37       77.96       77.55       77.14       76.73       76.31       75.90       75.48       75.06       74.63    
        74.20       73.76       73.31       72.86       72.40       71.93       71.46       70.98       70.49       70.00    
  10  -1000.0       88.58       88.49       88.37       88.21       88.03       87.81       87.56       87.28       86.98    
        86.65       86.29       85.92       85.53       85.12       84.72       84.30       83.89       83.46       83.03    
        82.60       82.17       81.74       81.30       80.87       80.44       80.02       79.60       79.18       78.76    
        78.35       77.94       77.54       77.13       76.72       76.31       75.90       75.49       75.07       74.65    
        74.22       73.78       73.33       72.88       72.42       71.95       71.47       70.99       70.50       70.00    
  11  -1000.0       88.80       88.73       88.62       88.47       88.28       88.05       87.79       87.50       87.18    
        86.83       86.45       86.05       85.64       85.21       84.79       84.37       83.94       83.51       83.07    
        82.62       82.18       81.74       81.30       80.86       80.42       80.00       79.57       79.16       78.74    
        78.33       77.93       77.52       77.12       76.72       76.31       75.91       75.50       75.09       74.67    
        74.24       73.80       73.36       72.91       72.44       71.97       71.49       71.00       70.50       70.00    
  12  -1000.0       89.08       89.02       88.91       88.76       88.56       88.33       88.05       87.74       87.40    
        87.03       86.63       86.20       85.75       85.27       84.86       84.44       84.00       83.55       83.10    
        82.64       82.19       81.73       81.28       80.84       80.40       79.97       79.54       79.12       78.71    
        78.31       77.90       77.51       77.11       76.71       76.31       75.92       75.51       75.10       74.69    
        74.27       73.84       73.39       72.94       72.48       72.00       71.51       71.02       70.51       70.00    
  13  -1000.0       89.41       89.36       89.25       89.09       88.88       88.63       88.34       88.01       87.65    
        87.26       86.83       86.37       85.87       85.28       84.94       84.52       84.06       83.60       83.13    
        82.66       82.19       81.72       81.26       80.81       80.36       79.93       79.50       79.09       78.68    
        78.27       77.88       77.48       77.09       76.71       76.32       75.92       75.53       75.13       74.72    
        74.30       73.87       73.43       72.98       72.52       72.04       71.54       71.04       70.52       70.00    
  14  -1000.0       89.80       89.74       89.63       89.46       89.24       88.97       88.66       88.31       87.93    
        87.51       87.06       86.58       86.08       85.56       85.09       84.62       84.14       83.65       83.16    
        82.67       82.18       81.70       81.23       80.77       80.32       79.88       79.45       79.04       78.63    
        78.23       77.84       77.46       77.08       76.70       76.32       75.93       75.55       75.16       74.76    
        74.35       73.92       73.49       73.03       72.57       72.08       71.58       71.06       70.54       70.00    
  15  -1000.0       90.24       90.18       90.05       89.87       89.63       89.34       89.01       88.64       88.23    
        87.78       87.31       86.81       86.29       85.77       85.25       84.74       84.22       83.70       83.19    
        82.67       82.17       81.67       81.19       80.71       80.26       79.82       79.39       78.98       78.57    
        78.18       77.80       77.43       77.06       76.69       76.32       75.95       75.57       75.19       74.80    
        74.40       73.98       73.55       73.10       72.63       72.14       71.63       71.10       70.55       70.00    
  16  -1000.0       90.74       90.67       90.53       90.33       90.07       89.76       89.40       88.99       88.55    
        88.08       87.58       87.05       86.51       85.96       85.40       84.85       84.30       83.75       83.21    
        82.67       82.14       81.62       81.13       80.64       80.18       79.74       79.31       78.90       78.51    
        78.12       77.75       77.39       77.03       76.67       76.32       75.96       75.60       75.23       74.85    
        74.46       74.06       73.63       73.18       72.71       72.21       71.69       71.14       70.58       70.00    
  17  -1000.0       91.30       91.22       91.07       90.85       90.56       90.22       89.82       89.38       88.91    
        88.40       87.86       87.30       86.73       86.14       85.55       84.96       84.38       83.79       83.22    
        82.65       82.10       81.56       81.04       80.55       80.08       79.64       79.21       78.81       78.42    
        78.05       77.69       77.34       77.00       76.66       76.32       75.98       75.63       75.28       74.92    
        74.54       74.15       73.73       73.29       72.81       72.31       71.77       71.21       70.61       70.00    
  18  -1000.0       91.93       91.84       91.67       91.42       91.10       90.72       90.28       89.80       89.28    
        88.73       88.16       87.56       86.95       86.33       85.70       85.07       84.44       83.82       83.21    
        82.61       82.03       81.47       80.94       80.43       79.96       79.51       79.09       78.70       78.32    
        77.97       77.63       77.29       76.97       76.65       76.32       76.00       75.67       75.34       74.99    
        74.63       74.26       73.85       73.42       72.95       72.44       71.88       71.29       70.66       70.00    
  19  -1000.0       92.64       92.54       92.34       92.05       91.69       91.26       90.78       90.25       89.69    
        89.09       88.47       87.83       87.17       86.51       85.84       85.17       84.50       83.84       83.19    
        82.56       81.94       81.35       80.80       80.28       79.80       79.35       78.94       78.56       78.20    
        77.87       77.54       77.23       76.93       76.63       76.33       76.02       75.72       75.40       75.08    
        74.75       74.39       74.00       73.58       73.12       72.60       72.03       71.40       70.72       70.00    
  20  -1000.0       93.44       93.32       93.08       92.75       92.33       91.85       91.31       90.73       90.11    
        89.46       88.79       88.10       87.40       86.69       85.97       85.25       84.54       83.84       83.15    
        82.47       81.82       81.20       80.62       80.08       79.60       79.16       78.76       78.40       78.06    
        77.75       77.45       77.16       76.88       76.61       76.33       76.05       75.77       75.48       75.18    
        74.88       74.55       74.18       73.78       73.33       72.82       72.23       71.56       70.81       70.00    
  21  -1000.0       94.36       94.20       93.92       93.52       93.04       92.49       91.88       91.23       90.55    
        89.85       89.12       88.38       87.62       86.86       86.09       85.33       84.57       83.83       83.09    
        82.36       81.66       81.00       80.39       79.84       79.35       78.92       78.55       78.21       77.90    
        77.62       77.35       77.09       76.84       76.59       76.34       76.08       75.82       75.55       75.30    
        75.03       74.73       74.40       74.03       73.60       73.10       72.51       71.79       70.94       70.00    
  22  -1000.0       95.41       95.21       94.85       94.37       93.80       93.16       92.48       91.76       91.01    
        90.24       89.45       88.65       87.84       87.03       86.21       85.39       84.58       83.78       82.99    
        82.21       81.46       80.75       80.10       79.52       79.04       78.63       78.29       77.99       77.71    
        77.46       77.23       77.00       76.78       76.57       76.35       76.12       75.89       75.61       75.43    
        75.21       74.95       74.66       74.33       73.95       73.48       72.89       72.14       71.17       70.00    
  23  -1000.0       96.64       96.36       95.89       95.29       94.61       93.88       93.10       92.30       91.48    
        90.64       89.79       88.93       88.06       87.19       86.31       85.44       84.57       83.71       82.86    
        82.02       81.20       80.43       79.72       79.11       78.64       78.28       77.99       77.73       77.51    
        77.30       77.10       76.91       76.73       76.54       76.36       76.17       75.98       75.78       75.60    
        75.41       75.20       74.96       74.69       74.37       73.97       73.44       72.69       71.58       70.00    
  24  -1000.0       98.13       97.69       97.03       96.28       95.46       94.61       93.74       92.85       91.95    
        91.04       90.12       89.20       88.27       87.34       86.41       85.48       84.55       83.62       82.70    
        81.79       80.90       80.04       79.23       78.55       78.14       77.86       77.64       77.45       77.28    
        77.12       76.96       76.82       76.67       76.52       76.38       76.23       76.08       75.93       75.78    
        75.63       75.47       75.29       75.10       74.87       74.58       74.19       73.58       72.44       70.00    
  25  -1000.0       100.0       99.20       98.26       97.30       96.33       95.36       94.38       93.40       92.42    
        91.43       90.44       89.46       88.47       87.48       86.49       85.50       84.51       83.52       82.53    
        81.54       80.56       79.58       78.60       77.69       77.51       77.38       77.26       77.15       77.04    
        76.93       76.82       76.72       76.61       76.50       76.40       76.29       76.19       76.08       75.97    
        75.87       75.76       75.65       75.53       75.42       75.29       75.15       74.97       74.51       70.00    
  26  -1000.0       98.13       97.69       97.03       96.28       95.46       94.62       93.74       92.85       91.95    
        91.04       90.12       89.20       88.28       87.35       86.41       85.48       84.55       83.63       82.71    
        81.80       80.91       80.04       79.24       78.55       78.14       77.87       77.64       77.46       77.28    
        77.12       76.97       76.82       76.68       76.53       76.39       76.25       76.10       75.95       75.80    
        75.65       75.48       75.30       75.10       74.87       74.58       74.19       73.58       72.44       70.00    
  27  -1000.0       96.64       96.36       95.89       95.29       94.61       93.88       93.11       92.31       91.49    
        90.65       89.80       88.94       88.07       87.20       86.33       85.45       84.58       83.72       82.87    
        82.03       81.22       80.45       79.73       79.12       78.66       78.29       78.00       77.75       77.52    
        77.31       77.11       76.92       76.74       76.56       76.38       76.20       76.02       75.83       75.64    
        75.43       75.22       74.97       74.70       74.37       73.97       73.44       72.69       71.58       70.00    
  28  -1000.0       95.41       95.21       94.85       94.37       93.80       93.17       92.49       91.77       91.02    
        90.26       89.47       88.67       87.87       87.05       86.23       85.41       84.60       83.79       83.00    
        82.23       81.48       80.77       80.12       79.54       79.06       78.65       78.31       78.00       77.73    
        77.48       77.25       77.02       76.80       76.59       76.38       76.16       75.94       75.72       75.49    
        75.24       74.97       74.68       74.35       73.96       73.48       72.90       72.14       71.17       70.00    
  29  -1000.0       94.36       94.21       93.92       93.53       93.05       92.50       91.89       91.25       90.57    
        89.87       89.15       88.41       87.65       86.89       86.12       85.36       84.60       83.84       83.10    
        82.38       81.69       81.03       80.42       79.87       79.38       78.95       78.57       78.23       77.92    
        77.64       77.37       77.11       76.86       76.61       76.37       76.12       75.87       75.62       75.35    
        75.06       74.76       74.42       74.05       73.61       73.11       72.51       71.79       70.95       70.00    
  30  -1000.0       93.44       93.32       93.09       92.76       92.34       91.86       91.33       90.75       90.14    
        89.49       88.82       88.14       87.44       86.73       86.01       85.29       84.58       83.87       83.18    
        82.50       81.85       81.23       80.65       80.12       79.63       79.19       78.79       78.42       78.09    
        77.77       77.47       77.19       76.91       76.64       76.36       76.09       75.81       75.52       75.23    
        74.91       74.57       74.20       73.80       73.34       72.83       72.23       71.56       70.81       70.00    
  31  -1000.0       92.64       92.54       92.34       92.06       91.70       91.28       90.80       90.28       89.72    
        89.13       88.51       87.88       87.23       86.56       85.89       85.22       84.55       83.88       83.23    
        82.60       81.98       81.39       80.83       80.31       79.83       79.38       78.97       78.59       78.23    
        77.89       77.57       77.26       76.95       76.66       76.36       76.06       75.75       75.44       75.12    
        74.78       74.41       74.02       73.60       73.13       72.61       72.04       71.40       70.72       70.00    
  32  -1000.0       91.93       91.84       91.67       91.43       91.11       90.73       90.31       89.83       89.32    
        88.78       88.21       87.62       87.02       86.40       85.77       85.14       84.51       83.88       83.26    
        82.66       82.08       81.51       80.98       80.47       79.99       79.54       79.12       78.73       78.35    
        77.99       77.65       77.32       76.99       76.67       76.35       76.03       75.71       75.37       75.02    
        74.66       74.28       73.87       73.43       72.96       72.45       71.89       71.29       70.66       70.00    
  33  -1000.0       91.30       91.22       91.07       90.85       90.57       90.23       89.85       89.42       88.95    
        88.45       87.93       87.38       86.81       86.23       85.64       85.05       84.45       83.86       83.28    
        82.71       82.15       81.61       81.09       80.59       80.12       79.67       79.24       78.84       78.45    
        78.08       77.72       77.37       77.03       76.69       76.35       76.01       75.66       75.31       74.94    
        74.56       74.17       73.75       73.30       72.83       72.32       71.78       71.21       70.61       70.00    
  34  -1000.0       90.73       90.66       90.53       90.34       90.08       89.78       89.43       89.03       88.60    
        88.14       87.65       87.14       86.61       86.07       85.51       84.95       84.39       83.83       83.28    
        82.73       82.20       81.68       81.17       80.69       80.22       79.77       79.34       78.93       78.54    
        78.15       77.78       77.42       77.06       76.70       76.35       75.99       75.63       75.26       74.88    
        74.48       74.08       73.65       73.20       72.72       72.22       71.70       71.15       70.58       70.00    
  35  -1000.0       90.23       90.17       90.05       89.87       89.64       89.36       89.04       88.68       88.28    
        87.85       87.40       86.92       86.42       85.91       85.39       84.86       84.33       83.79       83.26    
        82.74       82.23       81.72       81.23       80.76       80.30       79.85       79.42       79.01       78.61    
        78.21       77.83       77.45       77.08       76.71       76.34       75.97       75.60       75.21       74.82    
        74.42       74.00       73.57       73.11       72.64       72.15       71.63       71.10       70.56       70.00    
  36  -1000.0       89.78       89.72       89.61       89.45       89.24       88.98       88.68       88.35       87.98    
        87.58       87.16       86.71       86.24       85.76       85.26       84.76       84.26       83.75       83.24    
        82.74       82.24       81.76       81.28       80.81       80.36       79.92       79.49       79.07       78.66    
        78.26       77.87       77.49       77.10       76.72       76.34       75.96       75.57       75.18       74.78    
        74.36       73.94       73.50       73.05       72.58       72.09       71.59       71.07       70.54       70.00    
  37  -1000.0       89.38       89.33       89.23       89.08       88.88       88.64       88.36       88.05       87.70    
        87.33       86.93       86.51       86.07       85.61       85.14       84.67       84.18       83.70       83.21    
        82.73       82.25       81.78       81.31       80.85       80.41       79.97       79.54       79.12       78.71    
        78.30       77.91       77.51       77.12       76.73       76.34       75.95       75.55       75.15       74.74    
        74.32       73.89       73.45       72.99       72.53       72.04       71.55       71.04       70.52       70.00    
  38  -1000.0       89.03       88.98       88.88       88.74       88.55       88.33       88.07       87.77       87.45    
        87.10       86.72       86.33       85.91       85.48       85.03       84.57       84.11       83.65       83.18    
        82.71       82.25       81.79       81.33       80.88       80.44       80.01       79.58       79.16       78.74    
        78.34       77.93       77.53       77.13       76.74       76.34       75.94       75.53       75.12       74.71    
        74.28       73.85       73.41       72.95       72.49       72.01       71.52       71.02       70.51       70.00    
  39  -1000.0       88.73       88.68       88.58       88.44       88.26       88.05       87.80       87.53       87.22    
        86.89       86.53       86.16       85.76       85.35       84.92       84.48       84.04       83.59       83.14    
        82.69       82.24       81.79       81.34       80.90       80.47       80.03       79.61       79.19       78.77    
        78.36       77.95       77.55       77.15       76.74       76.34       75.93       75.52       75.10       74.68    
        74.26       73.82       73.37       72.92       72.45       71.98       71.50       71.00       70.50       70.00    
  40  -1000.0       88.47       88.42       88.32       88.18       88.00       87.80       87.56       87.30       87.01    
        86.69       86.36       86.00       85.62       85.23       84.82       84.40       83.97       83.54       83.10    
        82.66       82.22       81.79       81.35       80.91       80.48       80.06       79.63       79.21       78.80    
        78.38       77.97       77.56       77.15       76.75       76.34       75.92       75.51       75.09       74.66    
        74.23       73.79       73.35       72.89       72.43       71.96       71.48       70.99       70.50       70.00    
  41  -1000.0       88.27       88.19       88.08       87.94       87.77       87.57       87.35       87.10       86.82    
        86.52       86.20       85.85       85.49       85.11       84.72       84.32       83.91       83.49       83.06    
        82.64       82.21       81.78       81.35       80.92       80.49       80.07       79.65       79.23       78.81    
        78.40       77.98       77.57       77.16       76.75       76.33       75.92       75.50       75.08       74.65    
        74.21       73.77       73.32       72.87       72.41       71.94       71.46       70.98       70.49       70.00    
  42  -1000.0       88.04       87.99       87.88       87.73       87.56       87.37       87.15       86.91       86.65    
        86.36       86.05       85.72       85.38       85.01       84.63       84.24       83.84       83.44       83.03    
        82.61       82.19       81.77       81.34       80.92       80.50       80.08       79.66       79.24       78.83    
        78.41       78.00       77.58       77.17       76.75       76.33       75.91       75.49       75.06       74.63    
        74.20       73.76       73.31       72.85       72.39       71.92       71.45       70.97       70.49       70.00    
  43  -1000.0       87.85       87.79       87.69       87.55       87.38       87.19       86.98       86.75       86.49    
        86.22       85.92       85.61       85.27       84.92       84.56       84.18       83.79       83.39       82.99    
        82.58       82.17       81.76       81.34       80.92       80.50       80.09       79.67       79.25       78.83    
        78.42       78.00       77.59       77.17       76.75       76.33       75.91       75.49       75.06       74.62    
        74.19       73.74       73.29       72.84       72.38       71.91       71.44       70.97       70.49       70.00    
  44  -1000.0       87.69       87.63       87.52       87.38       87.21       87.02       86.82       86.60       86.35    
        86.09       85.81       85.50       85.18       84.84       84.49       84.12       83.74       83.35       82.96    
        82.56       82.15       81.74       81.33       80.92       80.50       80.09       79.67       79.26       78.84    
        78.42       78.01       77.59       77.17       76.75       76.33       75.91       75.48       75.05       74.61    
        74.18       73.73       73.28       72.83       72.37       71.91       71.44       70.96       70.48       70.00    
  45  -1000.0       87.59       87.49       87.37       87.22       87.05       86.87       86.68       86.46       86.23    
        85.98       85.71       85.42       85.10       84.77       84.43       84.07       83.70       83.32       82.93    
        82.54       82.14       81.73       81.33       80.92       80.50       80.09       79.68       79.26       78.85    
        78.43       78.01       77.59       77.17       76.75       76.33       75.90       75.48       75.04       74.61    
        74.17       73.72       73.28       72.82       72.36       71.90       71.43       70.96       70.48       70.00    
  46  -1000.0     -1000.0       87.36       87.23       87.08       86.92       86.73       86.55       86.35       86.13    
        85.89       85.62       85.34       85.04       84.72       84.38       84.03       83.66       83.29       82.91    
        82.52       82.12       81.72       81.32       80.91       80.50       80.09       79.68       79.26       78.85    
        78.43       78.02       77.60       77.18       76.75       76.33       75.90       75.47       75.04       74.60    
        74.16       73.72       73.27       72.82       72.36       71.89       71.43       70.95       70.48       70.00    
  47  -1000.0     -1000.0     -1000.0       87.09       86.95       86.80       86.63       86.43       86.24       86.04    
        85.81       85.56       85.28       84.99       84.67       84.34       83.99       83.64       83.27       82.89    
        82.50       82.11       81.71       81.31       80.91       80.50       80.09       79.68       79.27       78.85    
        78.43       78.02       77.60       77.18       76.75       76.33       75.90       75.47       75.04       74.60    
        74.16       73.71       73.26       72.81       72.35       71.89       71.42       70.95       70.48       70.00    
  48  -1000.0     -1000.0     -1000.0     -1000.0       86.83       86.69       86.54       86.37       86.15       85.96    
        85.75       85.51       85.24       84.96       84.65       84.32       83.97       83.62       83.25       82.88    
        82.49       82.10       81.71       81.31       80.91       80.50       80.09       79.68       79.27       78.85    
        78.44       78.02       77.60       77.18       76.75       76.33       75.90       75.47       75.04       74.60    
        74.16       73.71       73.26       72.81       72.35       71.89       71.42       70.95       70.48       70.00    
  49  -1000.0     -1000.0     -1000.0     -1000.0     -1000.0       86.60       86.49       86.32       86.13       85.90    
        85.71       85.48       85.22       84.94       84.63       84.30       83.96       83.61       83.24       82.87    
        82.49       82.10       81.71       81.31       80.91       80.50       80.09       79.68       79.27       78.85    
        78.44       78.02       77.60       77.18       76.75       76.33       75.90       75.47       75.03       74.60    
        74.16       73.71       73.26       72.81       72.35       71.89       71.42       70.95       70.48       70.00    
  50  -1000.0     -1000.0     -1000.0     -1000.0     -1000.0     -1000.0     -1000.0     -1000.0     -1000.0     -1000.0    
      -1000.0     -1000.0     -1000.0     -1000.0     -1000.0     -1000.0     -1000.0     -1000.0     -1000.0     -1000.0    
      -1000.0     -1000.0     -1000.0     -1000.0     -1000.0     -1000.0     -1000.0     -1000.0     -1000.0     -1000.0    
      -1000.0     -1000.0     -1000.0     -1000.0     -1000.0     -1000.0     -1000.0     -1000.0     -1000.0     -1000.0    
      -1000.0     -1000.0     -1000.0     -1000.0     -1000.0     -1000.0     -1000.0     -1000.0     -1000.0       70.00    
1
              HEAD IN LAYER   2 AT END OF TIME STEP   1 IN STRESS PERIOD    1
  ---------------------------------------------------------------------------

            1           2           3           4           5           6           7           8           9          10
           11          12          13          14          15          16          17          18          19          20
           21          22          23          24          25          26          27          28          29          30
           31          32          33          34          35          36          37          38          39          40
           41          42          43          44          45          46          47          48          49          50
 ........................................................................................................................
   1  -1000.0     -1000.0     -1000.0     -1000.0     -1000.0     -1000.0     -1000.0     -1000.0     -1000.0     -1000.0    
      -1000.0     -1000.0     -1000.0     -1000.0     -1000.0     -1000.0     -1000.0     -1000.0     -1000.0     -1000.0    
      -1000.0     -1000.0     -1000.0     -1000.0     -1000.0     -1000.0     -1000.0     -1000.0     -1000.0     -1000.0    
      -1000.0     -1000.0     -1000.0     -1000.0     -1000.0     -1000.0     -1000.0     -1000.0     -1000.0     -1000.0    
      -1000.0     -1000.0     -1000.0     -1000.0     -1000.0     -1000.0     -1000.0     -1000.0     -1000.0       70.00    
   2  -1000.0     -1000.0     -1000.0     -1000.0     -1000.0     -1000.0     -1000.0       86.47       86.26       86.02    
        85.82       85.58       85.31       85.01       84.69       84.35       84.00       83.63       83.26       82.88    
        82.49       82.10       81.70       81.29       80.89       80.48       80.07       79.65       79.24       78.83    
        78.41       77.99       77.58       77.16       76.73       76.31       75.88       75.45       75.02       74.59    
        74.15       73.70       73.26       72.80       72.35       71.89       71.42       70.95       70.48       70.00    
   3  -1000.0     -1000.0     -1000.0     -1000.0     -1000.0     -1000.0       86.70       86.51       86.29       86.08    
        85.86       85.61       85.33       85.03       84.70       84.36       84.01       83.64       83.27       82.88    
        82.49       82.10       81.70       81.29       80.89       80.48       80.07       79.65       79.24       78.83    
        78.41       77.99       77.57       77.15       76.73       76.31       75.88       75.46       75.02       74.59    
        74.15       73.71       73.26       72.81       72.35       71.89       71.42       70.95       70.48       70.00    
   4  -1000.0     -1000.0     -1000.0     -1000.0     -1000.0       86.98       86.80       86.59       86.38       86.16    
        85.92       85.66       85.37       85.06       84.73       84.39       84.03       83.66       83.28       82.89    
        82.50       82.10       81.70       81.30       80.89       80.48       80.07       79.65       79.24       78.82    
        78.41       77.99       77.57       77.15       76.73       76.31       75.89       75.46       75.03       74.59    
        74.15       73.71       73.26       72.81       72.35       71.89       71.42       70.95       70.48       70.00    
   5  -1000.0     -1000.0     -1000.0     -1000.0       87.28       87.11       86.91       86.71       86.49       86.26    
        86.00       85.72       85.43       85.11       84.77       84.42       84.06       83.68       83.30       82.91    
        82.51       82.11       81.71       81.30       80.89       80.48       80.06       79.65       79.23       78.82    
        78.40       77.99       77.57       77.15       76.73       76.31       75.89       75.46       75.03       74.60    
        74.16       73.71       73.27       72.81       72.36       71.89       71.43       70.96       70.48       70.00    
   6  -1000.0     -1000.0     -1000.0       87.59       87.43       87.25       87.06       86.85       86.62       86.37    
        86.10       85.81       85.50       85.17       84.83       84.46       84.09       83.71       83.32       82.93    
        82.53       82.12       81.71       81.30       80.89       80.47       80.06       79.64       79.23       78.81    
        78.40       77.98       77.57       77.15       76.73       76.31       75.89       75.46       75.03       74.60    
        74.16       73.72       73.27       72.82       72.36       71.90       71.43       70.96       70.48       70.00    
   7  -1000.0     -1000.0       87.87       87.75       87.60       87.42       87.22       87.00       86.76       86.49    
        86.21       85.91       85.59       85.24       84.89       84.52       84.14       83.75       83.35       82.95    
        82.54       82.13       81.72       81.30       80.89       80.47       80.05       79.64       79.22       78.81    
        78.39       77.98       77.56       77.15       76.73       76.31       75.89       75.47       75.04       74.61    
        74.17       73.73       73.28       72.83       72.37       71.91       71.44       70.96       70.48       70.00    
   8  -1000.0       88.11       88.05       87.94       87.78       87.60       87.39       87.17       86.91       86.64    
        86.34       86.02       85.68       85.33       84.96       84.58       84.19       83.79       83.39       82.98    
        82.56       82.15       81.73       81.31       80.89       80.47       80.05       79.63       79.21       78.80    
        78.38       77.97       77.56       77.14       76.73       76.31       75.89       75.47       75.05       74.62    
        74.18       73.74       73.30       72.84       72.38       71.92       71.45       70.97       70.49       70.00    
   9  -1000.0       88.32       88.27       88.14       87.99       87.80       87.59       87.35       87.09       86.80    
        86.49       86.15       85.80       85.42       85.04       84.64       84.24       83.84       83.42       83.00    
        82.58       82.16       81.73       81.31       80.88       80.46       80.03       79.61       79.20       78.78    
        78.37       77.96       77.55       77.14       76.73       76.31       75.90       75.48       75.06       74.63    
        74.20       73.76       73.31       72.86       72.40       71.93       71.46       70.98       70.49       70.00    
  10  -1000.0       88.58       88.49       88.37       88.21       88.03       87.81       87.56       87.28       86.98    
        86.65       86.29       85.92       85.53       85.12       84.72       84.30       83.89       83.46       83.03    
        82.60       82.17       81.74       81.30       80.87       80.44       80.02       79.60       79.18       78.76    
        78.35       77.94       77.54       77.13       76.72       76.31       75.90       75.49       75.07       74.65    
        74.22       73.78       73.33       72.88       72.42       71.95       71.47       70.99       70.50       70.00    
  11  -1000.0       88.80       88.73       88.62       88.47       88.28       88.05       87.79       87.50       87.18    
        86.83       86.45       86.05       85.64       85.21       84.79       84.37       83.94       83.51       83.07    
        82.62       82.18       81.74       81.30       80.86       80.42       80.00       79.57       79.16       78.74    
        78.33       77.93       77.52       77.12       76.72       76.31       75.91       75.50       75.09       74.67    
        74.24       73.80       73.36       72.91       72.44       71.97       71.49       71.00       70.50       70.00    
  12  -1000.0       89.08       89.02       88.91       88.76       88.56       88.33       88.05       87.74       87.40    
        87.03       86.63       86.20       85.75       85.27       84.86       84.44       84.00       83.55       83.10    
        82.64       82.19       81.73       81.28       80.84       80.40       79.97       79.54       79.12       78.71    
        78.31       77.90       77.51       77.11       76.71       76.31       75.92       75.51       75.10       74.69    
        74.27       73.84       73.39       72.94       72.48       72.00       71.51       71.02       70.51       70.00    
  13  -1000.0       89.41       89.36       89.25       89.09       88.88       88.63       88.34       88.01       87.65    
        87.26       86.83       86.37       85.87       85.28       84.94       84.52       84.06       83.60       83.13    
        82.66       82.19       81.72       81.26       80.81       80.36       79.93       79.50       79.09       78.68    
        78.27       77.88       77.48       77.09       76.71       76.32       75.92       75.53       75.13       74.72    
        74.30       73.87       73.43       72.98       72.52       72.04       71.54       71.04       70.52       70.00    
  14  -1000.0       89.80       89.74       89.63       89.46       89.24       88.97       88.66       88.31       87.93    
        87.51       87.06       86.58       86.08       85.56       85.09       84.62       84.14       83.65       83.16    
        82.67       82.18       81.70       81.23       80.77       80.32       79.88       79.45       79.04       78.63    
        78.23       77.84       77.46       77.08       76.70       76.32       75.93       75.55       75.16       74.76    
        74.35       73.92       73.49       73.03       72.57       72.08       71.58       71.06       70.54       70.00    
  15  -1000.0       90.24       90.18       90.05       89.87       89.63       89.34       89.01       88.64       88.23    
        87.78       87.31       86.81       86.29       85.77       85.25       84.74       84.22       83.70       83.19    
        82.67       82.17       81.67       81.19       80.71       80.26       79.82       79.39       78.98       78.57    
        78.18       77.80       77.43       77.06       76.69       76.32       75.95       75.57       75.19       74.80    
        74.40       73.98       73.55       73.10       72.63       72.14       71.63       71.10       70.55       70.00    
  16  -1000.0       90.74       90.67       90.53       90.33       90.07       89.76       89.40       88.99       88.55    
        88.08       87.58       87.05       86.51       85.96       85.40       84.85       84.30       83.75       83.21    
        82.67       82.14       81.62       81.13       80.64       80.18       79.74       79.31       78.90       78.51    
        78.12       77.75       77.39       77.03       76.67       76.32       75.96       75.60       75.23       74.85    
        74.46       74.06       73.63       73.18       72.71       72.21       71.69       71.14       70.58       70.00    
  17  -1000.0       91.30       91.22       91.07       90.85       90.56       90.22       89.82       89.38       88.91    
        88.40       87.86       87.30       86.73       86.14       85.55       84.96       84.38       83.79       83.22    
        82.65       82.10       81.56       81.04       80.55       80.08       79.64       79.21       78.81       78.42    
        78.05       77.69       77.34       77.00       76.66       76.32       75.98       75.63       75.28       74.92    
        74.54       74.15       73.73       73.29       72.81       72.31       71.77       71.21       70.61       70.00    
  18  -1000.0       91.93       91.84       91.67       91.42       91.10       90.72       90.28       89.80       89.28    
        88.73       88.16       87.56       86.95       86.33       85.70       85.07       84.44       83.82       83.21    
        82.61       82.03       81.47       80.94       80.43       79.96       79.51       79.09       78.70       78.32    
        77.97       77.63       77.29       76.97       76.65       76.32       76.00       75.67       75.34       74.99    
        74.63       74.26       73.85       73.42       72.95       72.44       71.88       71.29       70.66       70.00    
  19  -1000.0       92.64       92.54       92.34       92.05       91.69       91.26       90.78       90.25       89.69    
        89.09       88.47       87.83       87.17       86.51       85.84       85.17       84.50       83.84       83.19    
        82.56       81.94       81.35       80.80       80.28       79.80       79.35       78.94       78.56       78.20    
        77.87       77.54       77.23       76.93       76.63       76.33       76.02       75.72       75.40       75.08    
        74.75       74.39       74.00       73.58       73.12       72.60       72.03       71.40       70.72       70.00    
  20  -1000.0       93.44       93.32       93.08       92.75       92.33       91.85       91.31       90.73       90.11    
        89.46       88.79       88.10       87.40       86.69       85.97       85.25       84.54       83.84       83.15    
        82.47       81.82       81.20       80.62       80.08       79.60       79.16       78.76       78.40       78.06    
        77.75       77.45       77.16       76.88       76.61       76.33       76.05       75.77       75.48       75.18    
        74.88       74.55       74.18       73.78       73.33       72.82       72.23       71.56       70.81       70.00    
  21  -1000.0       94.36       94.20       93.92       93.52       93.04       92.49       91.88       91.23       90.55    
        89.85       89.12       88.38       87.62       86.86       86.09       85.33       84.57       83.83       83.09    
        82.36       81.66       81.00       80.39       79.84       79.35       78.92       78.55       78.21       77.90    
        77.62       77.35       77.09       76.84       76.59       76.34       76.08       75.82       75.55       75.30    
        75.03       74.73       74.40       74.03       73.60       73.10       72.51       71.79       70.94       70.00    
  22  -1000.0       95.41       95.21       94.85       94.37       93.80       93.16       92.48       91.76       91.01    
        90.24       89.45       88.65       87.84       87.03       86.21       85.39       84.58       83.78       82.99    
        82.21       81.46       80.75       80.10       79.52       79.04       78.63       78.29       77.99       77.71    
        77.46       77.23       77.00       76.78       76.57       76.35       76.12       75.89       75.61       75.43    
        75.21       74.95       74.66       74.33       73.95       73.48       72.89       72.14       71.17       70.00    
  23  -1000.0       96.64       96.36       95.89       95.29       94.61       93.88       93.10       92.30       91.48    
        90.64       89.79       88.93       88.06       87.19       86.31       85.44       84.57       83.71       82.86    
        82.02       81.20       80.43       79.72       79.11       78.64       78.28       77.99       77.73       77.51    
        77.30       77.10       76.91       76.73       76.54       76.36       76.17       75.98       75.78       75.60    
        75.41       75.20       74.96       74.69       74.37       73.97       73.44       72.69       71.58       70.00    
  24  -1000.0       98.13       97.69       97.03       96.28       95.46       94.61       93.74       92.85       91.95    
        91.04       90.12       89.20       88.27       87.34       86.41       85.48       84.55       83.62       82.70    
        81.79       80.90       80.04       79.23       78.55       78.14       77.86       77.64       77.45       77.28    
        77.12       76.96       76.82       76.67       76.52       76.38       76.23       76.08       75.93       75.78    
        75.63       75.47       75.29       75.10       74.87       74.58       74.19       73.58       72.44       70.00    
  25  -1000.0       100.0       99.19       98.26       97.30       96.33       95.36       94.38       93.40       92.41    
        91.43       90.44       89.46       88.47       87.48       86.49       85.50       84.51       83.52       82.53    
        81.54       80.56       79.58       78.60       77.69       77.51       77.38       77.26       77.15       77.04    
        76.93       76.82       76.72       76.61       76.50       76.40       76.29       76.19       76.08       75.97    
        75.87       75.76       75.65       75.53       75.42       75.29       75.15       74.97       74.50       70.00    
  26  -1000.0       98.13       97.69       97.03       96.28       95.46       94.62       93.74       92.85       91.95    
        91.04       90.12       89.20       88.28       87.35       86.41       85.48       84.55       83.63       82.71    
        81.80       80.91       80.04       79.24       78.55       78.14       77.87       77.64       77.46       77.28    
        77.12       76.97       76.82       76.68       76.53       76.39       76.25       76.10       75.95       75.80    
        75.65       75.48       75.30       75.10       74.87       74.58       74.19       73.58       72.44       70.00    
  27  -1000.0       96.64       96.36       95.89       95.29       94.61       93.88       93.11       92.31       91.49    
        90.65       89.80       88.94       88.07       87.20       86.33       85.45       84.58       83.72       82.87    
        82.03       81.22       80.45       79.73       79.12       78.66       78.29       78.00       77.75       77.52    
        77.31       77.11       76.92       76.74       76.56       76.38       76.20       76.02       75.83       75.64    
        75.43       75.22       74.97       74.70       74.37       73.97       73.44       72.69       71.58       70.00    
  28  -1000.0       95.41       95.21       94.85       94.37       93.80       93.17       92.49       91.77       91.02    
        90.26       89.47       88.67       87.87       87.05       86.23       85.41       84.60       83.79       83.00    
        82.23       81.48       80.77       80.12       79.54       79.06       78.65       78.31       78.00       77.73    
        77.48       77.25       77.02       76.80       76.59       76.38       76.16       75.94       75.72       75.49    
        75.24       74.97       74.68       74.35       73.96       73.48       72.90       72.14       71.17       70.00    
  29  -1000.0       94.36       94.21       93.92       93.53       93.05       92.50       91.89       91.25       90.57    
        89.87       89.14       88.41       87.65       86.89       86.12       85.36       84.60       83.84       83.10    
        82.38       81.69       81.03       80.42       79.87       79.38       78.95       78.57       78.23       77.92    
        77.64       77.37       77.11       76.86       76.61       76.37       76.12       75.87       75.62       75.35    
        75.06       74.76       74.42       74.05       73.61       73.11       72.51       71.79       70.95       70.00    
  30  -1000.0       93.44       93.32       93.09       92.76       92.34       91.86       91.33       90.75       90.14    
        89.49       88.82       88.14       87.44       86.73       86.01       85.29       84.58       83.87       83.18    
        82.50       81.85       81.23       80.65       80.12       79.63       79.19       78.79       78.42       78.09    
        77.77       77.47       77.19       76.91       76.64       76.36       76.09       75.81       75.52       75.23    
        74.91       74.57       74.20       73.80       73.34       72.83       72.23       71.56       70.81       70.00    
  31  -1000.0       92.64       92.54       92.34       92.06       91.70       91.28       90.80       90.28       89.72    
        89.13       88.51       87.88       87.23       86.56       85.89       85.22       84.55       83.88       83.23    
        82.60       81.98       81.39       80.83       80.31       79.83       79.38       78.97       78.59       78.23    
        77.89       77.57       77.26       76.95       76.66       76.36       76.06       75.75       75.44       75.12    
        74.78       74.41       74.02       73.60       73.13       72.61       72.04       71.40       70.72       70.00    
  32  -1000.0       91.93       91.84       91.67       91.43       91.11       90.73       90.31       89.83       89.32    
        88.78       88.21       87.62       87.02       86.40       85.77       85.14       84.51       83.88       83.26    
        82.66       82.08       81.51       80.98       80.47       79.99       79.54       79.12       78.73       78.35    
        77.99       77.65       77.32       76.99       76.67       76.35       76.03       75.71       75.37       75.02    
        74.66       74.28       73.87       73.43       72.96       72.45       71.89       71.29       70.66       70.00    
  33  -1000.0       91.30       91.22       91.07       90.85       90.57       90.23       89.85       89.42       88.95    
        88.45       87.93       87.38       86.81       86.23       85.64       85.05       84.45       83.86       83.28    
        82.71       82.15       81.61       81.09       80.59       80.12       79.67       79.24       78.84       78.45    
        78.08       77.72       77.37       77.03       76.69       76.35       76.01       75.66       75.31       74.94    
        74.56       74.17       73.75       73.30       72.83       72.32       71.78       71.21       70.61       70.00    
  34  -1000.0       90.73       90.66       90.53       90.34       90.08       89.78       89.43       89.03       88.60    
        88.14       87.65       87.14       86.61       86.07       85.51       84.95       84.39       83.83       83.28    
        82.73       82.20       81.68       81.17       80.69       80.22       79.77       79.34       78.93       78.54    
        78.15       77.78       77.42       77.06       76.70       76.35       75.99       75.63       75.26       74.88    
        74.48       74.08       73.65       73.20       72.72       72.22       71.70       71.15       70.58       70.00    
  35  -1000.0       90.23       90.17       90.05       89.87       89.64       89.36       89.04       88.68       88.28    
        87.85       87.40       86.92       86.42       85.91       85.39       84.86       84.33       83.79       83.26    
        82.74       82.23       81.72       81.23       80.76       80.30       79.85       79.42       79.01       78.61    
        78.21       77.83       77.45       77.08       76.71       76.34       75.97       75.60       75.21       74.82    
        74.42       74.00       73.57       73.11       72.64       72.15       71.63       71.10       70.56       70.00    
  36  -1000.0       89.78       89.72       89.61       89.45       89.24       88.98       88.68       88.35       87.98    
        87.58       87.16       86.71       86.24       85.76       85.26       84.76       84.26       83.75       83.24    
        82.74       82.24       81.76       81.28       80.81       80.36       79.92       79.49       79.07       78.66    
        78.26       77.87       77.49       77.10       76.72       76.34       75.96       75.57       75.18       74.78    
        74.36       73.94       73.50       73.05       72.58       72.09       71.59       71.07       70.54       70.00    
  37  -1000.0       89.38       89.33       89.23       89.08       88.88       88.64       88.36       88.05       87.70    
        87.33       86.93       86.51       86.07       85.61       85.14       84.67       84.18       83.70       83.21    
        82.73       82.25       81.78       81.31       80.85       80.41       79.97       79.54       79.12       78.71    
        78.30       77.91       77.51       77.12       76.73       76.34       75.95       75.55       75.15       74.74    
        74.32       73.89       73.45       72.99       72.53       72.04       71.55       71.04       70.52       70.00    
  38  -1000.0       89.03       88.98       88.88       88.74       88.55       88.33       88.07       87.77       87.45    
        87.10       86.72       86.33       85.91       85.48       85.03       84.57       84.11       83.65       83.18    
        82.71       82.25       81.79       81.33       80.88       80.44       80.01       79.58       79.16       78.74    
        78.34       77.93       77.53       77.13       76.74       76.34       75.94       75.53       75.12       74.71    
        74.28       73.85       73.41       72.95       72.49       72.01       71.52       71.02       70.51       70.00    
  39  -1000.0       88.73       88.68       88.58       88.44       88.26       88.05       87.80       87.53       87.22    
        86.89       86.53       86.16       85.76       85.35       84.92       84.48       84.04       83.59       83.14    
        82.69       82.24       81.79       81.34       80.90       80.47       80.03       79.61       79.19       78.77    
        78.36       77.95       77.55       77.15       76.74       76.34       75.93       75.52       75.10       74.68    
        74.26       73.82       73.37       72.92       72.45       71.98       71.50       71.00       70.50       70.00    
  40  -1000.0       88.47       88.42       88.32       88.18       88.00       87.80       87.56       87.30       87.01    
        86.69       86.36       86.00       85.62       85.23       84.82       84.40       83.97       83.54       83.10    
        82.66       82.22       81.79       81.35       80.91       80.48       80.06       79.63       79.21       78.80    
        78.38       77.97       77.56       77.15       76.75       76.34       75.92       75.51       75.09       74.66    
        74.23       73.79       73.35       72.89       72.43       71.96       71.48       70.99       70.50       70.00    
  41  -1000.0       88.27       88.19       88.08       87.94       87.77       87.57       87.35       87.10       86.82    
        86.52       86.20       85.85       85.49       85.11       84.72       84.32       83.91       83.49       83.06    
        82.64       82.21       81.78       81.35       80.92       80.49       80.07       79.65       79.23       78.81    
        78.40       77.98       77.57       77.16       76.75       76.33       75.92       75.50       75.08       74.65    
        74.21       73.77       73.32       72.87       72.41       71.94       71.46       70.98       70.49       70.00    
  42  -1000.0       88.04       87.99       87.88       87.73       87.56       87.37       87.15       86.91       86.65    
        86.36       86.05       85.72       85.38       85.01       84.63       84.24       83.84       83.44       83.03    
        82.61       82.19       81.77       81.34       80.92       80.50       80.08       79.66       79.24       78.83    
        78.41       78.00       77.58       77.17       76.75       76.33       75.91       75.49       75.06       74.63    
        74.20       73.76       73.31       72.85       72.39       71.92       71.45       70.97       70.49       70.00    
  43  -1000.0       87.85       87.79       87.69       87.55       87.38       87.19       86.98       86.75       86.49    
        86.22       85.92       85.61       85.27       84.92       84.56       84.18       83.79       83.39       82.99    
        82.58       82.17       81.76       81.34       80.92       80.50       80.09       79.67       79.25       78.83    
        78.42       78.00       77.59       77.17       76.75       76.33       75.91       75.49       75.06       74.62    
        74.19       73.74       73.29       72.84       72.38       71.91       71.44       70.97       70.49       70.00    
  44  -1000.0     -1000.0       87.63       87.52       87.38       87.21       87.02       86.82       86.60       86.35    
        86.09       85.81       85.50       85.18       84.84       84.49       84.12       83.74       83.35       82.96    
        82.56       82.15       81.74       81.33       80.92       80.50       80.09       79.67       79.26       78.84    
        78.42       78.01       77.59       77.17       76.75       76.33       75.91       75.48       75.05       74.61    
        74.18       73.73       73.28       72.83       72.37       71.91       71.44       70.96       70.48       70.00    
  45  -1000.0     -1000.0     -1000.0       87.37       87.22       87.05       86.87       86.68       86.46       86.23    
        85.98       85.71       85.42       85.10       84.77       84.43       84.07       83.70       83.32       82.93    
        82.54       82.14       81.73       81.33       80.92       80.50       80.09       79.68       79.26       78.85    
        78.43       78.01       77.59       77.17       76.75       76.33       75.90       75.48       75.04       74.61    
        74.17       73.72       73.28       72.82       72.36       71.90       71.43       70.96       70.48       70.00    
  46  -1000.0     -1000.0     -1000.0     -1000.0       87.08       86.92       86.73       86.55       86.35       86.13    
        85.89       85.62       85.34       85.04       84.72       84.38       84.03       83.66       83.29       82.91    
        82.52       82.12       81.72       81.32       80.91       80.50       80.09       79.68       79.26       78.85    
        78.43       78.02       77.60       77.18       76.75       76.33       75.90       75.47       75.04       74.60    
        74.16       73.72       73.27       72.82       72.36       71.89       71.43       70.95       70.48       70.00    
  47  -1000.0     -1000.0     -1000.0     -1000.0     -1000.0       86.80       86.63       86.43       86.24       86.04    
        85.81       85.56       85.28       84.99       84.67       84.34       83.99       83.64       83.27       82.89    
        82.50       82.11       81.71       81.31       80.91       80.50       80.09       79.68       79.27       78.85    
        78.43       78.02       77.60       77.18       76.75       76.33       75.90       75.47       75.04       74.60    
        74.16       73.71       73.26       72.81       72.35       71.89       71.42       70.95       70.48       70.00    
  48  -1000.0     -1000.0     -1000.0     -1000.0     -1000.0     -1000.0       86.54       86.37       86.15       85.96    
        85.75       85.51       85.24       84.96       84.65       84.32       83.97       83.62       83.25       82.88    
        82.49       82.10       81.71       81.31       80.91       80.50       80.09       79.68       79.27       78.85    
        78.44       78.02       77.60       77.18       76.75       76.33       75.90       75.47       75.04       74.60    
        74.16       73.71       73.26       72.81       72.35       71.89       71.42       70.95       70.48       70.00    
  49  -1000.0     -1000.0     -1000.0     -1000.0     -1000.0     -1000.0     -1000.0       86.32       86.13       85.90    
        85.71       85.48       85.22       84.94       84.63       84.30       83.96       83.61       83.24       82.87    
        82.49       82.10       81.71       81.31       80.91       80.50       80.09       79.68       79.27       78.85    
        78.44       78.02       77.60       77.18       76.75       76.33       75.90       75.47       75.03       74.60    
        74.16       73.71       73.26       72.81       72.35       71.89       71.42       70.95       70.48       70.00    
  50  -1000.0     -1000.0     -1000.0     -1000.0     -1000.0     -1000.0     -1000.0     -1000.0     -1000.0     -1000.0    
      -1000.0     -1000.0     -1000.0     -1000.0     -1000.0     -1000.0     -1000.0     -1000.0     -1000.0     -1000.0    
      -1000.0     -1000.0     -1000.0     -1000.0     -1000.0     -1000.0     -1000.0     -1000.0     -1000.0     -1000.0    
      -1000.0     -1000.0     -1000.0     -1000.0     -1000.0     -1000.0     -1000.0     -1000.0     -1000.0     -1000.0    
      -1000.0     -1000.0     -1000.0     -1000.0     -1000.0     -1000.0     -1000.0     -1000.0     -1000.0       70.00    
1
              HEAD IN LAYER   3 AT END OF TIME STEP   1 IN STRESS PERIOD    1
  ---------------------------------------------------------------------------

            1           2           3           4           5           6           7           8           9          10
           11          12          13          14          15          16          17          18          19          20
           21          22          23          24          25          26          27          28          29          30
           31          32          33          34          35          36          37          38          39          40
[...]
        82.02       81.20       80.43       79.72       79.11       78.64       78.28       77.99       77.73       77.51    
        77.30       77.10       76.91       76.73       76.54       76.36       76.17       75.98       75.78       75.60    
        75.41       75.20       74.96       74.69       74.37       73.97       73.44       72.69       71.58       70.00    
  24  -1000.0       98.13       97.69       97.03       96.28       95.46       94.61       93.74       92.85       91.95    
        91.04       90.12       89.20       88.27       87.34       86.41       85.48       84.55       83.62       82.70    
        81.79       80.90       80.04       79.23       78.55       78.14       77.86       77.64       77.45       77.28    
        77.12       76.96       76.82       76.67       76.52       76.38       76.23       76.08       75.93       75.78    
        75.63       75.47       75.29       75.10       74.87       74.58       74.19       73.58       72.44       70.00    
  25  -1000.0       100.0       99.19       98.25       97.30       96.33       95.36       94.38       93.40       92.41    
        91.43       90.44       89.45       88.47       87.48       86.49       85.50       84.51       83.52       82.53    
        81.54       80.56       79.58       78.61       77.69       77.51       77.38       77.26       77.15       77.04    
        76.93       76.82       76.72       76.61       76.50       76.40       76.29       76.19       76.08       75.97    
        75.87       75.76       75.65       75.53       75.42       75.29       75.15       74.97       74.49       70.00    
  26  -1000.0       98.13       97.69       97.03       96.28       95.46       94.62       93.74       92.85       91.95    
        91.04       90.12       89.20       88.28       87.35       86.41       85.48       84.55       83.63       82.71    
        81.80       80.91       80.04       79.24       78.55       78.14       77.87       77.64       77.46       77.28    
        77.12       76.97       76.82       76.68       76.53       76.39       76.25       76.10       75.95       75.80    
        75.65       75.48       75.30       75.10       74.87       74.58       74.19       73.58       72.44       70.00    
  27  -1000.0       96.64       96.36       95.89       95.29       94.61       93.88       93.11       92.31       91.49    
        90.65       89.80       88.94       88.07       87.20       86.33       85.45       84.58       83.72       82.87    
        82.03       81.22       80.45       79.73       79.12       78.66       78.29       78.00       77.75       77.52    
        77.31       77.11       76.92       76.74       76.56       76.38       76.20       76.02       75.83       75.64    
        75.43       75.22       74.97       74.70       74.37       73.97       73.44       72.69       71.58       70.00    
  28  -1000.0       95.41       95.21       94.85       94.37       93.80       93.17       92.49       91.77       91.02    
        90.26       89.47       88.67       87.87       87.05       86.23       85.41       84.60       83.79       83.00    
        82.23       81.48       80.77       80.12       79.54       79.06       78.65       78.31       78.00       77.73    
        77.48       77.25       77.02       76.80       76.59       76.38       76.16       75.94       75.72       75.49    
        75.24       74.97       74.68       74.35       73.96       73.48       72.90       72.14       71.17       70.00    
  29  -1000.0       94.36       94.21       93.92       93.53       93.05       92.50       91.89       91.25       90.57    
        89.87       89.14       88.41       87.65       86.89       86.12       85.36       84.60       83.84       83.10    
        82.38       81.69       81.03       80.42       79.87       79.38       78.95       78.57       78.23       77.92    
        77.64       77.37       77.11       76.86       76.61       76.37       76.12       75.87       75.62       75.35    
        75.06       74.76       74.42       74.05       73.61       73.11       72.51       71.79       70.95       70.00    
  30  -1000.0       93.44       93.32       93.09       92.76       92.34       91.86       91.33       90.75       90.14    
        89.49       88.82       88.14       87.44       86.73       86.01       85.29       84.58       83.87       83.18    
        82.50       81.85       81.23       80.65       80.12       79.63       79.19       78.79       78.42       78.09    
        77.77       77.47       77.19       76.91       76.64       76.36       76.09       75.81       75.52       75.23    
        74.91       74.57       74.20       73.80       73.34       72.83       72.23       71.56       70.81       70.00    
  31  -1000.0       92.64       92.54       92.34       92.06       91.70       91.28       90.80       90.28       89.72    
        89.13       88.51       87.88       87.23       86.56       85.89       85.22       84.55       83.88       83.23    
        82.60       81.98       81.39       80.83       80.31       79.83       79.38       78.97       78.59       78.23    
        77.89       77.57       77.26       76.95       76.66       76.36       76.06       75.75       75.44       75.12    
        74.78       74.41       74.02       73.60       73.13       72.61       72.04       71.40       70.72       70.00    
  32  -1000.0       91.93       91.84       91.67       91.43       91.11       90.73       90.31       89.83       89.32    
        88.78       88.21       87.62       87.02       86.40       85.77       85.14       84.51       83.88       83.26    
        82.66       82.08       81.51       80.98       80.47       79.99       79.54       79.12       78.73       78.35    
        77.99       77.65       77.32       76.99       76.67       76.35       76.03       75.71       75.37       75.02    
        74.66       74.28       73.87       73.43       72.96       72.45       71.89       71.29       70.66       70.00    
  33  -1000.0       91.30       91.22       91.07       90.85       90.57       90.23       89.85       89.42       88.95    
        88.45       87.93       87.38       86.81       86.23       85.64       85.05       84.45       83.86       83.28    
        82.71       82.15       81.61       81.09       80.59       80.12       79.67       79.24       78.84       78.45    
        78.08       77.72       77.37       77.03       76.69       76.35       76.01       75.66       75.31       74.94    
        74.56       74.17       73.75       73.30       72.83       72.32       71.78       71.21       70.61       70.00    
  34  -1000.0       90.73       90.66       90.53       90.34       90.08       89.78       89.43       89.03       88.60    
        88.14       87.65       87.14       86.61       86.07       85.51       84.95       84.39       83.83       83.28    
        82.73       82.20       81.68       81.17       80.69       80.22       79.77       79.34       78.93       78.54    
        78.15       77.78       77.42       77.06       76.70       76.35       75.99       75.63       75.26       74.88    
        74.48       74.08       73.65       73.20       72.72       72.22       71.70       71.15       70.58       70.00    
  35  -1000.0       90.23       90.17       90.05       89.87       89.64       89.36       89.04       88.68       88.28    
        87.85       87.40       86.92       86.42       85.91       85.39       84.86       84.33       83.79       83.26    
        82.74       82.23       81.72       81.23       80.76       80.30       79.85       79.42       79.01       78.61    
        78.21       77.83       77.45       77.08       76.71       76.34       75.97       75.60       75.21       74.82    
        74.42       74.00       73.57       73.11       72.64       72.15       71.63       71.10       70.56       70.00    
  36  -1000.0       89.78       89.72       89.61       89.45       89.24       88.98       88.68       88.35       87.98    
        87.58       87.16       86.71       86.24       85.76       85.26       84.76       84.26       83.75       83.24    
        82.74       82.24       81.76       81.28       80.81       80.36       79.92       79.49       79.07       78.66    
        78.26       77.87       77.49       77.10       76.72       76.34       75.96       75.57       75.18       74.78    
        74.36       73.94       73.50       73.05       72.58       72.09       71.59       71.07       70.54       70.00    
  37  -1000.0       89.38       89.33       89.23       89.08       88.88       88.64       88.36       88.05       87.70    
        87.33       86.93       86.51       86.07       85.61       85.14       84.67       84.18       83.70       83.21    
        82.73       82.25       81.78       81.31       80.85       80.41       79.97       79.54       79.12       78.71    
        78.30       77.91       77.51       77.12       76.73       76.34       75.95       75.55       75.15       74.74    
        74.32       73.89       73.45       72.99       72.53       72.04       71.55       71.04       70.52       70.00    
  38  -1000.0       89.03       88.98       88.88       88.74       88.55       88.33       88.07       87.77       87.45    
        87.10       86.72       86.33       85.91       85.48       85.03       84.57       84.11       83.65       83.18    
        82.71       82.25       81.79       81.33       80.88       80.44       80.01       79.58       79.16       78.74    
        78.34       77.93       77.53       77.13       76.74       76.34       75.94       75.53       75.12       74.71    
        74.28       73.85       73.41       72.95       72.49       72.01       71.52       71.02       70.51       70.00    
  39  -1000.0       88.73       88.68       88.58       88.44       88.26       88.05       87.80       87.53       87.22    
        86.89       86.53       86.16       85.76       85.35       84.92       84.48       84.04       83.59       83.14    
        82.69       82.24       81.79       81.34       80.90       80.47       80.03       79.61       79.19       78.77    
        78.36       77.95       77.55       77.15       76.74       76.34       75.93       75.52       75.10       74.68    
        74.26       73.82       73.37       72.92       72.45       71.98       71.50       71.00       70.50       70.00    
  40  -1000.0       88.47       88.42       88.32       88.18       88.00       87.80       87.56       87.30       87.01    
        86.69       86.36       86.00       85.62       85.23       84.82       84.40       83.97       83.54       83.10    
        82.66       82.22       81.79       81.35       80.91       80.48       80.06       79.63       79.21       78.80    
        78.38       77.97       77.56       77.15       76.75       76.34       75.92       75.51       75.09       74.66    
        74.23       73.79       73.35       72.89       72.43       71.96       71.48       70.99       70.50       70.00    
  41  -1000.0       88.27       88.19       88.08       87.94       87.77       87.57       87.35       87.10       86.82    
        86.52       86.20       85.85       85.49       85.11       84.72       84.32       83.91       83.49       83.06    
        82.64       82.21       81.78       81.35       80.92       80.49       80.07       79.65       79.23       78.81    
        78.40       77.98       77.57       77.16       76.75       76.33       75.92       75.50       75.08       74.65    
        74.21       73.77       73.32       72.87       72.41       71.94       71.46       70.98       70.49       70.00    
  42  -1000.0     -1000.0       87.99       87.88       87.73       87.56       87.37       87.15       86.91       86.65    
        86.36       86.05       85.72       85.38       85.01       84.63       84.24       83.84       83.44       83.03    
        82.61       82.19       81.77       81.34       80.92       80.50       80.08       79.66       79.24       78.83    
        78.41       78.00       77.58       77.17       76.75       76.33       75.91       75.49       75.06       74.63    
        74.20       73.76       73.31       72.85       72.39       71.92       71.45       70.97       70.49       70.00    
  43  -1000.0     -1000.0     -1000.0       87.69       87.55       87.38       87.19       86.98       86.75       86.49    
        86.22       85.92       85.61       85.27       84.92       84.56       84.18       83.79       83.39       82.99    
        82.58       82.17       81.76       81.34       80.92       80.50       80.09       79.67       79.25       78.83    
        78.42       78.00       77.59       77.17       76.75       76.33       75.91       75.49       75.06       74.62    
        74.19       73.74       73.29       72.84       72.38       71.91       71.44       70.97       70.49       70.00    
  44  -1000.0     -1000.0     -1000.0     -1000.0       87.38       87.21       87.02       86.82       86.60       86.35    
        86.09       85.81       85.50       85.18       84.84       84.49       84.12       83.74       83.35       82.96    
        82.56       82.15       81.74       81.33       80.92       80.50       80.09       79.67       79.26       78.84    
        78.42       78.01       77.59       77.17       76.75       76.33       75.91       75.48       75.05       74.61    
        74.18       73.73       73.28       72.83       72.37       71.91       71.44       70.96       70.48       70.00    
  45  -1000.0     -1000.0     -1000.0     -1000.0     -1000.0       87.05       86.87       86.68       86.46       86.23    
        85.98       85.71       85.42       85.10       84.77       84.43       84.07       83.70       83.32       82.93    
        82.54       82.14       81.73       81.33       80.92       80.50       80.09       79.68       79.26       78.85    
        78.43       78.01       77.59       77.17       76.75       76.33       75.90       75.48       75.04       74.61    
        74.17       73.72       73.28       72.82       72.36       71.90       71.43       70.96       70.48       70.00    
  46  -1000.0     -1000.0     -1000.0     -1000.0     -1000.0     -1000.0       86.73       86.55       86.35       86.13    
        85.89       85.62       85.34       85.04       84.72       84.38       84.03       83.66       83.29       82.91    
        82.52       82.12       81.72       81.32       80.91       80.50       80.09       79.68       79.26       78.85    
        78.43       78.02       77.60       77.18       76.75       76.33       75.90       75.47       75.04       74.60    
        74.16       73.72       73.27       72.82       72.36       71.89       71.43       70.95       70.48       70.00    
  47  -1000.0     -1000.0     -1000.0     -1000.0     -1000.0     -1000.0     -1000.0       86.43       86.24       86.04    
        85.81       85.56       85.28       84.99       84.67       84.34       83.99       83.64       83.27       82.89    
        82.50       82.11       81.71       81.31       80.91       80.50       80.09       79.68       79.27       78.85    
        78.43       78.02       77.60       77.18       76.75       76.33       75.90       75.47       75.04       74.60    
        74.16       73.71       73.26       72.81       72.35       71.89       71.42       70.95       70.48       70.00    
  48  -1000.0     -1000.0     -1000.0     -1000.0     -1000.0     -1000.0     -1000.0     -1000.0       86.15       85.96    
        85.75       85.51       85.24       84.96       84.65       84.32       83.97       83.62       83.25       82.88    
        82.49       82.10       81.71       81.31       80.91       80.50       80.09       79.68       79.27       78.85    
        78.44       78.02       77.60       77.18       76.75       76.33       75.90       75.47       75.04       74.60    
        74.16       73.71       73.26       72.81       72.35       71.89       71.42       70.95       70.48       70.00    
  49  -1000.0     -1000.0     -1000.0     -1000.0     -1000.0     -1000.0     -1000.0     -1000.0     -1000.0       85.90    
        85.71       85.48       85.22       84.94       84.63       84.30       83.96       83.61       83.24       82.87    
        82.49       82.10       81.71       81.31       80.91       80.50       80.09       79.68       79.27       78.85    
        78.44       78.02       77.60       77.18       76.75       76.33       75.90       75.47       75.03       74.60    
        74.16       73.71       73.26       72.81       72.35       71.89       71.42       70.95       70.48       70.00    
  50  -1000.0     -1000.0     -1000.0     -1000.0     -1000.0     -1000.0     -1000.0     -1000.0     -1000.0     -1000.0    
      -1000.0     -1000.0     -1000.0     -1000.0     -1000.0     -1000.0     -1000.0     -1000.0     -1000.0     -1000.0    
      -1000.0     -1000.0     -1000.0     -1000.0     -1000.0     -1000.0     -1000.0     -1000.0     -1000.0     -1000.0    
      -1000.0     -1000.0     -1000.0     -1000.0     -1000.0     -1000.0     -1000.0     -1000.0     -1000.0     -1000.0    
      -1000.0     -1000.0     -1000.0     -1000.0     -1000.0     -1000.0     -1000.0     -1000.0     -1000.0       70.00    

 HEAD WILL BE SAVED ON UNIT   51 AT END OF TIME STEP    1, STRESS PERIOD    1

 DRAWDOWN WILL BE SAVED ON UNIT   52 AT END OF TIME STEP    1, STRESS PERIOD    1
1
  VOLUMETRIC BUDGET FOR ENTIRE MODEL AT END OF TIME STEP    1, STRESS PERIOD   1
  ------------------------------------------------------------------------------

     CUMULATIVE VOLUMES      L**3       RATES FOR THIS TIME STEP      L**3/T
     ------------------                 ------------------------

           IN:                                      IN:
           ---                                      ---
             STORAGE =           0.0000               STORAGE =           0.0000
       CONSTANT HEAD =           0.0000         CONSTANT HEAD =           0.0000
               WELLS =         375.0000                 WELLS =         375.0000
       RIVER LEAKAGE =      347350.8125         RIVER LEAKAGE =      347350.8125
                  ET =           0.0000                    ET =           0.0000
            RECHARGE =       20160.0000              RECHARGE =       20160.0000

            TOTAL IN =      367885.8125              TOTAL IN =      367885.8125

          OUT:                                     OUT:
          ----                                     ----
             STORAGE =           0.0000               STORAGE =           0.0000
       CONSTANT HEAD =      268349.5938         CONSTANT HEAD =      268349.5938
               WELLS =        6000.0000                 WELLS =        6000.0000
       RIVER LEAKAGE =       92794.3594         RIVER LEAKAGE =       92794.3594
                  ET =         740.8995                    ET =         740.8995
            RECHARGE =           0.0000              RECHARGE =           0.0000

           TOTAL OUT =      367884.8438             TOTAL OUT =      367884.8438

            IN - OUT =           0.9688              IN - OUT =           0.9688

 PERCENT DISCREPANCY =           0.00     PERCENT DISCREPANCY =           0.00






         TIME SUMMARY AT END OF TIME STEP    1 IN STRESS PERIOD    1
                    SECONDS     MINUTES      HOURS       DAYS        YEARS
                    -----------------------------------------------------------
   TIME STEP LENGTH  86400.      1440.0      24.000      1.0000     2.73785E-03
 STRESS PERIOD TIME  86400.      1440.0      24.000      1.0000     2.73785E-03
         TOTAL TIME  86400.      1440.0      24.000      1.0000     2.73785E-03
1

 Run end date and time (yyyy/mm/dd hh:mm:ss): 2026/02/24 16:22:41
 Elapsed run time: 15.206 Seconds

