                                  MODFLOW-2005     
      U.S. GEOLOGICAL SURVEY MODULAR FINITE-DIFFERENCE GROUND-WATER FLOW MODEL
                            VERSION 1.12.00 2/3/2017

 LIST FILE: static_ensemble_1133111.list
                         UNIT    2

 OPENING static_ensemble_1133111.dis
 FILE TYPE:DIS   UNIT   11   STATUS:OLD    
 FORMAT:FORMATTED              ACCESS:SEQUENTIAL          

 OPENING static_ensemble_1133111.bas
 FILE TYPE:BAS6   UNIT   13   STATUS:OLD    
 FORMAT:FORMATTED              ACCESS:SEQUENTIAL          

 OPENING static_ensemble_1133111.lpf
 FILE TYPE:LPF   UNIT   15   STATUS:OLD    
 FORMAT:FORMATTED              ACCESS:SEQUENTIAL          

 OPENING static_ensemble_1133111.evt
 FILE TYPE:EVT   UNIT   22   STATUS:OLD    
 FORMAT:FORMATTED              ACCESS:SEQUENTIAL          

 OPENING static_ensemble_1133111.rch
 FILE TYPE:RCH   UNIT   19   STATUS:OLD    
 FORMAT:FORMATTED              ACCESS:SEQUENTIAL          

 OPENING static_ensemble_1133111.riv
 FILE TYPE:RIV   UNIT   18   STATUS:OLD    
 FORMAT:FORMATTED              ACCESS:SEQUENTIAL          

 OPENING static_ensemble_1133111.wel
 FILE TYPE:WEL   UNIT   20   STATUS:OLD    
 FORMAT:FORMATTED              ACCESS:SEQUENTIAL          

 OPENING static_ensemble_1133111.oc
 FILE TYPE:OC   UNIT   14   STATUS:OLD    
 FORMAT:FORMATTED              ACCESS:SEQUENTIAL          

 OPENING static_ensemble_1133111.pcg
 FILE TYPE:PCG   UNIT   27   STATUS:OLD    
 FORMAT:FORMATTED              ACCESS:SEQUENTIAL          

 OPENING static_ensemble_1133111.cbc
 FILE TYPE:DATA(BINARY)   UNIT   53   STATUS:REPLACE
 FORMAT:UNFORMATTED            ACCESS:STREAM              

 OPENING static_ensemble_1133111.hds
 FILE TYPE:DATA(BINARY)   UNIT   51   STATUS:REPLACE
 FORMAT:UNFORMATTED            ACCESS:STREAM              

 OPENING static_ensemble_1133111.ddn
 FILE TYPE:DATA(BINARY)   UNIT   52   STATUS:REPLACE
 FORMAT:UNFORMATTED            ACCESS:STREAM              

 BAS -- BASIC PACKAGE, VERSION 7, 5/2/2005 INPUT READ FROM UNIT   13
 
 MODFLOW was compiled using mixed precision
 Precision of REAL variables:           6
 Precision of DOUBLE PRECISION variables:          15

 DISCRETIZATION INPUT DATA READ FROM UNIT   11
 # DIS package for MODFLOW-2005 generated by Flopy 3.9.5
    3 LAYERS        50 ROWS        50 COLUMNS
    1 STRESS PERIOD(S) IN SIMULATION
 MODEL TIME UNIT IS DAYS
 MODEL LENGTH UNIT IS METERS
  Confining bed flag for each layer:
   0   0   0

                     DELR =   1000.00    

                     DELC =   1000.00    



           TOP ELEVATION OF LAYER 1
 READING ON UNIT   11 WITH FORMAT: (50E15.6)           



             MODEL LAYER BOTTOM EL. FOR LAYER   1
 READING ON UNIT   11 WITH FORMAT: (50E15.6)           



             MODEL LAYER BOTTOM EL. FOR LAYER   2
 READING ON UNIT   11 WITH FORMAT: (50E15.6)           



             MODEL LAYER BOTTOM EL. FOR LAYER   3
 READING ON UNIT   11 WITH FORMAT: (50E15.6)           


 STRESS PERIOD     LENGTH       TIME STEPS     MULTIPLIER FOR DELT    SS FLAG
 ----------------------------------------------------------------------------
        1         1.000000          1                    1.000         SS

 STEADY-STATE SIMULATION



 
 # BAS6 package for MODFLOW-2005 generated by Flopy 3.9.5                        
 THE FREE FORMAT OPTION HAS BEEN SELECTED



                     BOUNDARY ARRAY FOR LAYER   1
 READING ON UNIT   13 WITH FORMAT: (50I10)             



                     BOUNDARY ARRAY FOR LAYER   2
 READING ON UNIT   13 WITH FORMAT: (50I10)             



                     BOUNDARY ARRAY FOR LAYER   3
 READING ON UNIT   13 WITH FORMAT: (50I10)             

 AQUIFER HEAD WILL BE SET TO  -999.99     AT ALL NO-FLOW NODES (IBOUND=0).



                       INITIAL HEAD FOR LAYER   1
 READING ON UNIT   13 WITH FORMAT: (50E15.6)           



                       INITIAL HEAD FOR LAYER   2
 READING ON UNIT   13 WITH FORMAT: (50E15.6)           



                       INITIAL HEAD FOR LAYER   3
 READING ON UNIT   13 WITH FORMAT: (50E15.6)           
 # OC package for MODFLOW-2005 generated by Flopy 3.9.5

 OUTPUT CONTROL IS SPECIFIED ONLY AT TIME STEPS FOR WHICH OUTPUT IS DESIRED
 COMPACT CELL-BY-CELL BUDGET FILES WILL BE WRITTEN
 AUXILIARY DATA WILL BE SAVED IN CELL-BY-CELL BUDGET FILES
 HEAD PRINT FORMAT CODE IS   0    DRAWDOWN PRINT FORMAT CODE IS   0
 HEADS WILL BE SAVED ON UNIT   51    DRAWDOWNS WILL BE SAVED ON UNIT   52

 LPF -- LAYER-PROPERTY FLOW PACKAGE, VERSION 7, 5/2/2005
         INPUT READ FROM UNIT   15
 # LPF package for MODFLOW-2005 generated by Flopy 3.9.5
 CELL-BY-CELL FLOWS WILL BE SAVED ON UNIT   53
 HEAD AT CELLS THAT CONVERT TO DRY= -1.00000E+30
 No named parameters
 STORAGECOEFFICIENT OPTION:
 Read storage coefficient rather than specific storage

   LAYER FLAGS:
 LAYER       LAYTYP        LAYAVG         CHANI        LAYVKA        LAYWET
 ---------------------------------------------------------------------------
    1             1             0     1.000E+00             0             0
    2             1             0     1.000E+00             0             0
    3             1             0     1.000E+00             0             0

   INTERPRETATION OF LAYER FLAGS:
                        INTERBLOCK     HORIZONTAL    DATA IN
         LAYER TYPE   TRANSMISSIVITY   ANISOTROPY   ARRAY VKA   WETTABILITY
 LAYER      (LAYTYP)      (LAYAVG)       (CHANI)      (LAYVKA)      (LAYWET)
 ---------------------------------------------------------------------------
    1   CONVERTIBLE      HARMONIC     1.000E+00    VERTICAL K  NON-WETTABLE
    2   CONVERTIBLE      HARMONIC     1.000E+00    VERTICAL K  NON-WETTABLE
    3   CONVERTIBLE      HARMONIC     1.000E+00    VERTICAL K  NON-WETTABLE

 WETTING CAPABILITY IS NOT ACTIVE IN ANY LAYER



              HYD. COND. ALONG ROWS FOR LAYER   1
 READING ON UNIT   15 WITH FORMAT: (50E15.6)           



                VERTICAL HYD. COND. FOR LAYER   1
 READING ON UNIT   15 WITH FORMAT: (50E15.6)           



              HYD. COND. ALONG ROWS FOR LAYER   2
 READING ON UNIT   15 WITH FORMAT: (50E15.6)           



                VERTICAL HYD. COND. FOR LAYER   2
 READING ON UNIT   15 WITH FORMAT: (50E15.6)           



              HYD. COND. ALONG ROWS FOR LAYER   3
 READING ON UNIT   15 WITH FORMAT: (50E15.6)           



                VERTICAL HYD. COND. FOR LAYER   3
 READING ON UNIT   15 WITH FORMAT: (50E15.6)           

 WEL -- WELL PACKAGE, VERSION 7, 5/2/2005 INPUT READ FROM UNIT   20
 # WEL package for MODFLOW-2005 generated by Flopy 3.9.5
 No named parameters
 MAXIMUM OF      3 ACTIVE WELLS AT ONE TIME


     0 Well parameters

 RIV -- RIVER PACKAGE, VERSION 7, 5/2/2005 INPUT READ FROM UNIT   18
 # RIV package for MODFLOW-2005 generated by Flopy 3.9.5
 No named parameters
 MAXIMUM OF     49 ACTIVE RIVER REACHES AT ONE TIME
 CELL-BY-CELL FLOWS WILL BE SAVED ON UNIT   53


     0 River parameters

 EVT -- EVAPOTRANSPIRATION PACKAGE, VERSION 7, 5/2/2005
         INPUT READ FROM UNIT   22
 # EVT package for MODFLOW-2005 generated by Flopy 3.9.5
 No named parameters
 OPTION 3 -- EVAPOTRANSPIRATION FROM HIGHEST ACTIVE NODE IN EACH VERTICAL COLUMN
 CELL-BY-CELL FLOWS WILL BE SAVED ON UNIT   53


     0 Evapotranspiration parameters

 RCH -- RECHARGE PACKAGE, VERSION 7, 5/2/2005 INPUT READ FROM UNIT   19
 # RCH package for MODFLOW-2005 generated by Flopy 3.9.5
 No named parameters
 OPTION 3 -- RECHARGE TO HIGHEST ACTIVE NODE IN EACH VERTICAL COLUMN
 CELL-BY-CELL FLOWS WILL BE SAVED ON UNIT   53


     0 Recharge parameters

 PCG -- CONJUGATE-GRADIENT SOLUTION PACKAGE, VERSION 7, 5/2/2005
 # PCG package for MODFLOW-2005 generated by Flopy 3.9.5
 MAXIMUM OF   5000 CALLS OF SOLUTION ROUTINE
 MAXIMUM OF    500 INTERNAL ITERATIONS PER CALL TO SOLUTION ROUTINE
 MATRIX PRECONDITIONING TYPE :    1



                                    SOLUTION BY THE CONJUGATE-GRADIENT METHOD
                                   -------------------------------------------
                    MAXIMUM NUMBER OF CALLS TO PCG ROUTINE =     5000
                        MAXIMUM ITERATIONS PER CALL TO PCG =      500
                               MATRIX PRECONDITIONING TYPE =        1
        RELAXATION FACTOR (ONLY USED WITH PRECOND. TYPE 1) =    0.97000E+00
 PARAMETER OF POLYNOMIAL PRECOND. = 2 (2) OR IS CALCULATED :        0
                         HEAD CHANGE CRITERION FOR CLOSURE =    0.10000E-04
                     RESIDUAL CHANGE CRITERION FOR CLOSURE =    0.10000E-04
            PCG HEAD AND RESIDUAL CHANGE PRINTOUT INTERVAL =      999
     PRINTING FROM SOLVER IS LIMITED(1) OR SUPPRESSED (>1) =        3
                            STEADY-STATE DAMPING PARAMETER =    0.10000E-01
                               TRANSIENT DAMPING PARAMETER =    0.10000E-01
1
                            STRESS PERIOD NO.    1, LENGTH =   1.000000    
                            -----------------------------------------------

                              NUMBER OF TIME STEPS =     1

                               MULTIPLIER FOR DELT =     1.000

                            INITIAL TIME STEP SIZE =   1.000000    

 WELL NO.  LAYER   ROW   COL   STRESS RATE         
 --------------------------------------------------
      1      3     22     39      -1500.    
      2      1     13     15      -1500.    
      3      1     25     26       375.0    

      3 WELLS

 REACH NO.  LAYER   ROW   COL     STAGE      CONDUCTANCE     BOTTOM EL.         
 -------------------------------------------------------------------------------
      1      1     25      2       100.5           50.00           98.00    
      2      1     25      3       99.50           50.00           97.00    
      3      1     25      4       98.50           50.00           96.00    
      4      1     25      5       97.50           50.00           95.00    
      5      1     25      6       96.50           50.00           94.00    
      6      1     25      7       95.50           50.00           93.00    
      7      1     25      8       94.50           50.00           92.00    
      8      1     25      9       93.50           50.00           91.00    
      9      1     25     10       92.50           50.00           90.00    
     10      1     25     11       91.50           50.00           89.00    
     11      1     25     12       90.50           50.00           88.00    
     12      1     25     13       89.50           50.00           87.00    
     13      1     25     14       88.50           50.00           86.00    
     14      1     25     15       87.50           50.00           85.00    
     15      1     25     16       86.50           50.00           84.00    
     16      1     25     17       85.50           50.00           83.00    
     17      1     25     18       84.50           50.00           82.00    
     18      1     25     19       83.50           50.00           81.00    
     19      1     25     20       82.50           50.00           80.00    
     20      1     25     21       81.50           50.00           79.00    
     21      1     25     22       80.50           50.00           78.00    
     22      1     25     23       79.50           50.00           77.00    
     23      1     25     24       78.50           50.00           76.00    
     24      1     25     25       77.50           50.00           75.00    
     25      1     25     26       77.40           50.00           74.90    
     26      1     25     27       77.30           50.00           74.80    
     27      1     25     28       77.20           50.00           74.70    
     28      1     25     29       77.10           50.00           74.60    
     29      1     25     30       77.00           50.00           74.50    
     30      1     25     31       76.90           50.00           74.40    
     31      1     25     32       76.80           50.00           74.30    
     32      1     25     33       76.70           50.00           74.20    
     33      1     25     34       76.60           50.00           74.10    
     34      1     25     35       76.50           50.00           74.00    
     35      1     25     36       76.40           50.00           73.90    
     36      1     25     37       76.30           50.00           73.80    
     37      1     25     38       76.20           50.00           73.70    
     38      1     25     39       76.10           50.00           73.60    
     39      1     25     40       76.00           50.00           73.50    
     40      1     25     41       75.90           50.00           73.40    
     41      1     25     42       75.80           50.00           73.30    
     42      1     25     43       75.70           50.00           73.20    
     43      1     25     44       75.60           50.00           73.10    
     44      1     25     45       75.50           50.00           73.00    
     45      1     25     46       75.40           50.00           72.90    
     46      1     25     47       75.30           50.00           72.80    
     47      1     25     48       75.20           50.00           72.70    
     48      1     25     49       75.10           50.00           72.60    
     49      1     25     50       75.00           50.00           72.50    

     49 RIVER REACHES



                         ET SURFACE
 READING ON UNIT   22 WITH FORMAT: (50E15.6)           



            EVAPOTRANSPIRATION RATE
 READING ON UNIT   22 WITH FORMAT: (50E15.6)           

         EXTINCTION DEPTH =   10.0000    



                           RECHARGE
 READING ON UNIT   19 WITH FORMAT: (50E15.6)           
 
 SOLVING FOR HEAD 

 OUTPUT CONTROL FOR STRESS PERIOD    1   TIME STEP    1
    SAVE HEAD FOR ALL LAYERS
    SAVE DRAWDOWN FOR ALL LAYERS
    SAVE BUDGET
    PRINT HEAD FOR ALL LAYERS
    PRINT BUDGET
 UBDSV2 SAVING "   CONSTANT HEAD" ON UNIT  53 AT TIME STEP  1, STRESS PERIOD   1
 UBDSV1 SAVING "FLOW RIGHT FACE " ON UNIT  53 AT TIME STEP  1, STRESS PERIOD   1
 UBDSV1 SAVING "FLOW FRONT FACE " ON UNIT  53 AT TIME STEP  1, STRESS PERIOD   1
 UBDSV1 SAVING "FLOW LOWER FACE " ON UNIT  53 AT TIME STEP  1, STRESS PERIOD   1
 UBDSV4 SAVING "   RIVER LEAKAGE" ON UNIT  53 AT TIME STEP  1, STRESS PERIOD   1
 UBDSV3 SAVING "              ET" ON UNIT  53 AT TIME STEP  1, STRESS PERIOD   1
 UBDSV3 SAVING "        RECHARGE" ON UNIT  53 AT TIME STEP  1, STRESS PERIOD   1
1
              HEAD IN LAYER   1 AT END OF TIME STEP   1 IN STRESS PERIOD    1
  ---------------------------------------------------------------------------

            1           2           3           4           5           6           7           8           9          10
           11          12          13          14          15          16          17          18          19          20
           21          22          23          24          25          26          27          28          29          30
           31          32          33          34          35          36          37          38          39          40
           41          42          43          44          45          46          47          48          49          50
 ........................................................................................................................
   1  -1000.0     -1000.0     -1000.0     -1000.0     -1000.0     -1000.0     -1000.0     -1000.0     -1000.0     -1000.0    
      -1000.0     -1000.0     -1000.0     -1000.0     -1000.0     -1000.0     -1000.0     -1000.0     -1000.0     -1000.0    
      -1000.0     -1000.0     -1000.0     -1000.0     -1000.0     -1000.0     -1000.0     -1000.0     -1000.0     -1000.0    
      -1000.0     -1000.0     -1000.0     -1000.0     -1000.0     -1000.0     -1000.0     -1000.0     -1000.0     -1000.0    
      -1000.0     -1000.0     -1000.0     -1000.0     -1000.0     -1000.0     -1000.0     -1000.0     -1000.0       70.00    
   2  -1000.0     -1000.0     -1000.0     -1000.0     -1000.0       108.7       108.5       108.0       107.5       106.9    
        106.3       105.7       104.9       104.0       103.1       102.1       101.0       100.0       99.00       98.00    
        97.06       96.13       95.20       94.27       93.35       92.42       91.50       90.59       89.68       88.77    
        87.87       86.97       86.08       85.18       84.29       83.39       82.50       81.60       80.71       79.80    
        78.89       77.98       77.05       76.11       75.15       74.18       73.18       72.16       71.10       70.00    
   3  -1000.0     -1000.0     -1000.0     -1000.0       109.1       108.8       108.5       108.0       107.5       106.9    
        106.3       105.7       104.9       104.0       103.1       102.0       101.0       99.99       98.98       97.98    
        97.05       96.11       95.18       94.25       93.33       92.40       91.49       90.57       89.66       88.76    
        87.85       86.96       86.06       85.17       84.27       83.38       82.49       81.59       80.69       79.79    
        78.88       77.97       77.04       76.10       75.15       74.17       73.18       72.15       71.10       70.00    
   4  -1000.0     -1000.0     -1000.0       109.4       109.2       108.9       108.5       108.0       107.5       107.0    
        106.3       105.6       104.9       104.0       103.0       102.0       101.0       99.95       98.94       97.95    
        97.01       96.08       95.15       94.22       93.29       92.37       91.45       90.54       89.63       88.72    
        87.82       86.92       86.03       85.13       84.24       83.35       82.46       81.57       80.67       79.77    
        78.86       77.95       77.02       76.09       75.14       74.16       73.17       72.15       71.10       70.00    
   5  -1000.0     -1000.0       109.7       109.5       109.2       108.9       108.4       108.0       107.5       107.0    
        106.3       105.6       104.8       103.9       103.0       101.9       100.9       99.90       98.89       97.89    
        96.96       96.02       95.09       94.16       93.24       92.31       91.39       90.48       89.57       88.67    
        87.77       86.87       85.98       85.09       84.20       83.31       82.42       81.53       80.63       79.74    
        78.83       77.92       77.00       76.07       75.12       74.15       73.16       72.14       71.09       70.00    
   6  -1000.0       109.8       109.7       109.5       109.2       108.8       108.4       108.0       107.5       106.9    
        106.3       105.6       104.8       103.9       102.9       101.9       100.8       99.82       98.81       97.82    
        96.88       95.95       95.02       94.09       93.16       92.24       91.32       90.41       89.50       88.60    
        87.70       86.80       85.91       85.02       84.14       83.25       82.36       81.48       80.59       79.69    
        78.79       77.89       76.97       76.04       75.09       74.13       73.14       72.13       71.09       70.00    
   7  -1000.0       109.8       109.6       109.4       109.1       108.8       108.4       108.0       107.5       106.9    
        106.2       105.5       104.7       103.8       102.8       101.8       100.7       99.72       98.71       97.72    
        96.79       95.86       94.93       94.00       93.07       92.15       91.23       90.32       89.41       88.51    
        87.61       86.72       85.83       84.94       84.06       83.18       82.30       81.41       80.53       79.64    
        78.74       77.84       76.93       76.00       75.06       74.11       73.13       72.12       71.08       70.00    
   8  -1000.0       109.7       109.6       109.3       109.1       108.8       108.4       108.0       107.4       106.8    
        106.1       105.4       104.6       103.7       102.7       101.6       100.6       99.59       98.60       97.61    
        96.68       95.76       94.83       93.90       92.97       92.04       91.12       90.20       89.30       88.40    
        87.50       86.61       85.73       84.85       83.97       83.09       82.21       81.34       80.46       79.57    
        78.68       77.79       76.88       75.96       75.03       74.08       73.10       72.10       71.07       70.00    
   9  -1000.0       109.6       109.4       109.3       109.0       108.7       108.4       107.9       107.4       106.7    
        106.0       105.3       104.4       103.5       102.5       101.5       100.4       99.44       98.46       97.49    
        96.56       95.63       94.71       93.77       92.84       91.91       90.99       90.07       89.17       88.27    
        87.38       86.49       85.61       84.73       83.86       82.99       82.12       81.24       80.37       79.49    
        78.61       77.72       76.82       75.91       74.99       74.04       73.08       72.09       71.06       70.00    
  10  -1000.0       109.4       109.4       109.2       109.0       108.7       108.3       107.8       107.3       106.6    
        105.9       105.1       104.2       103.3       102.3       101.2       100.3       99.28       98.31       97.34    
        96.42       95.50       94.57       93.63       92.69       91.76       90.84       89.92       89.02       88.12    
        87.23       86.35       85.47       84.60       83.73       82.87       82.00       81.14       80.28       79.41    
        78.53       77.65       76.76       75.86       74.94       74.01       73.05       72.07       71.05       70.00    
  11  -1000.0       109.4       109.3       109.1       108.9       108.6       108.2       107.7       107.2       106.5    
        105.8       105.0       104.0       103.0       102.0       101.0       100.0       99.09       98.14       97.19    
        96.27       95.35       94.42       93.48       92.53       91.59       90.66       89.75       88.85       87.95    
        87.07       86.19       85.32       84.45       83.59       82.73       81.88       81.02       80.17       79.31    
        78.44       77.57       76.69       75.80       74.89       73.96       73.02       72.04       71.04       70.00    
  12  -1000.0       109.3       109.2       109.0       108.8       108.5       108.1       107.6       107.0       106.4    
        105.6       104.8       103.8       102.7       101.5       100.6       99.79       98.89       97.97       97.03    
        96.11       95.19       94.25       93.30       92.35       91.40       90.47       89.56       88.66       87.77    
        86.88       86.01       85.15       84.29       83.43       82.58       81.74       80.89       80.05       79.20    
        78.34       77.48       76.61       75.73       74.83       73.92       72.98       72.02       71.03       70.00    
  13  -1000.0       109.1       109.1       108.9       108.7       108.4       108.0       107.5       106.9       106.3    
        105.5       104.6       103.6       102.4       100.6       100.3       99.57       98.71       97.80       96.86    
        95.95       95.01       94.07       93.11       92.15       91.20       90.26       89.34       88.44       87.55    
        86.68       85.81       84.95       84.10       83.26       82.42       81.58       80.75       79.91       79.08    
        78.23       77.39       76.53       75.66       74.77       73.87       72.95       72.00       71.02       70.00    
  14  -1000.0       109.0       108.9       108.8       108.5       108.2       107.8       107.4       106.8       106.1    
        105.4       104.5       103.5       102.4       101.2       100.3       99.47       98.57       97.64       96.70    
        95.77       94.82       93.87       92.90       91.94       90.97       90.03       89.11       88.20       87.32    
        86.45       85.59       84.74       83.90       83.06       82.24       81.41       80.59       79.77       78.94    
        78.12       77.28       76.44       75.58       74.71       73.82       72.91       71.97       71.00       70.00    
  15  -1000.0       108.9       108.8       108.6       108.4       108.1       107.7       107.2       106.6       106.0    
        105.2       104.4       103.5       102.4       101.4       100.4       99.39       98.44       97.49       96.54    
        95.59       94.62       93.65       92.68       91.70       90.72       89.77       88.85       87.94       87.06    
        86.19       85.34       84.50       83.67       82.85       82.04       81.23       80.42       79.61       78.80    
        77.99       77.17       76.34       75.50       74.65       73.77       72.87       71.95       70.99       70.00    
  16  -1000.0       108.7       108.6       108.5       108.2       107.9       107.5       107.0       106.5       105.8    
        105.1       104.3       103.4       102.4       101.4       100.3       99.29       98.31       97.34       96.36    
        95.39       94.40       93.41       92.42       91.43       90.45       89.49       88.56       87.66       86.77    
        85.91       85.07       84.24       83.43       82.62       81.82       81.03       80.24       79.45       78.65    
        77.86       77.06       76.25       75.42       74.58       73.72       72.83       71.92       70.98       70.00    
  17  -1000.0       108.5       108.4       108.3       108.0       107.7       107.3       106.9       106.3       105.6    
        104.9       104.1       103.2       102.3       101.3       100.2       99.16       98.16       97.17       96.18    
        95.18       94.16       93.15       92.14       91.13       90.14       89.18       88.25       87.34       86.46    
        85.61       84.78       83.96       83.16       82.37       81.59       80.81       80.04       79.27       78.50    
        77.72       76.94       76.15       75.34       74.52       73.67       72.80       71.90       70.97       70.00    
  18  -1000.0       108.3       108.2       108.1       107.8       107.5       107.1       106.6       106.1       105.4    
        104.7       103.9       103.1       102.1       101.1       100.0       98.99       97.98       96.98       95.98    
        94.94       93.90       92.85       91.82       90.80       89.79       88.83       87.90       86.99       86.12    
        85.28       84.46       83.65       82.87       82.10       81.34       80.58       79.83       79.08       78.33    
        77.58       76.82       76.05       75.26       74.46       73.63       72.77       71.88       70.96       70.00    
  19  -1000.0       108.1       108.0       107.9       107.6       107.3       106.9       106.4       105.8       105.2    
        104.5       103.7       102.8       101.9       100.9       99.82       98.78       97.77       96.78       95.77    
        94.68       93.59       92.51       91.45       90.41       89.40       88.43       87.50       86.61       85.75    
        84.91       84.11       83.32       82.56       81.81       81.07       80.34       79.61       78.89       78.16    
        77.44       76.70       75.96       75.19       74.41       73.59       72.75       71.87       70.95       70.00    
  20  -1000.0       107.9       107.8       107.6       107.4       107.0       106.6       106.1       105.6       104.9    
        104.2       103.4       102.6       101.6       100.6       99.55       98.52       97.53       96.57       95.56    
        94.39       93.24       92.11       91.02       89.97       88.95       87.99       87.06       86.18       85.33    
        84.51       83.72       82.96       82.22       81.49       80.78       80.08       79.38       78.69       77.99    
        77.29       76.59       75.87       75.13       74.37       73.57       72.74       71.87       70.96       70.00    
  21  -1000.0       107.6       107.5       107.4       107.1       106.8       106.3       105.9       105.3       104.6    
        103.9       103.1       102.2       101.3       100.3       99.23       98.21       97.25       96.39       95.39    
        94.05       92.81       91.63       90.52       89.46       88.44       87.48       86.56       85.69       84.86    
        84.07       83.30       82.57       81.85       81.16       80.48       79.80       79.14       78.48       77.82    
        77.15       76.48       75.79       75.08       74.35       73.57       72.76       71.89       70.97       70.00    
  22  -1000.0       107.3       107.3       107.1       106.8       106.5       106.0       105.5       104.9       104.3    
        103.6       102.8       101.9       100.9       99.93       98.85       97.82       96.86       96.00       95.00    
        93.57       92.26       91.04       89.91       88.85       87.85       86.90       85.99       85.14       84.33    
        83.57       82.84       82.14       81.46       80.80       80.15       79.52       78.89       78.26       77.64    
        77.02       76.38       75.73       75.06       74.35       73.61       72.81       71.94       71.00       70.00    
  23  -1000.0       107.1       107.0       106.8       106.5       106.1       105.7       105.2       104.6       103.9    
        103.2       102.3       101.5       100.5       99.49       98.40       97.35       96.35       95.39       94.38    
        92.93       91.56       90.31       89.18       88.14       87.19       86.24       85.34       84.51       83.74    
        83.01       82.33       81.67       81.03       80.41       79.81       79.21       78.63       78.05       77.47    
        76.88       76.29       75.69       75.06       74.39       73.68       72.91       72.04       71.07       70.00    
  24  -1000.0       106.8       106.7       106.5       106.2       105.8       105.3       104.8       104.2       103.5    
        102.7       101.9       101.0       100.0       99.00       97.89       96.82       95.79       94.79       93.79    
        92.15       90.69       89.40       88.28       87.30       86.48       85.49       84.59       83.79       83.06    
        82.39       81.75       81.15       80.56       79.99       79.44       78.89       78.36       77.83       77.29    
        76.76       76.22       75.66       75.09       74.48       73.81       73.08       72.23       71.21       70.00    
  25  -1000.0       106.5       106.4       106.2       105.8       105.4       104.9       104.3       103.7       103.0    
        102.2       101.4       100.5       99.49       98.44       97.33       96.24       95.19       94.17       93.17    
        91.11       89.56       88.26       87.14       86.25       85.89       84.59       83.69       82.95       82.29    
        81.68       81.11       80.57       80.04       79.54       79.04       78.55       78.07       77.60       77.12    
        76.64       76.16       75.66       75.15       74.61       74.02       73.36       72.56       71.49       70.00    
  26  -1000.0       106.9       106.8       106.6       106.3       105.9       105.4       104.9       104.3       103.6    
        102.8       102.0       101.1       100.1       99.10       97.98       96.89       95.83       94.80       93.80    
        92.16       90.71       89.44       88.32       87.35       86.53       85.54       84.64       83.84       83.11    
        82.43       81.80       81.19       80.60       80.03       79.48       78.93       78.39       77.86       77.32    
        76.78       76.24       75.68       75.10       74.48       73.82       73.09       72.23       71.21       70.00    
  27  -1000.0       107.3       107.2       107.0       106.8       106.4       106.0       105.4       104.8       104.2    
        103.4       102.6       101.7       100.8       99.71       98.58       97.49       96.42       95.38       94.37    
        92.96       91.63       90.41       89.29       88.27       87.31       86.36       85.47       84.63       83.85    
        83.12       82.43       81.77       81.12       80.50       79.89       79.29       78.70       78.12       77.53    
        76.94       76.34       75.72       75.09       74.42       73.70       72.92       72.05       71.08       70.00    
  28  -1000.0       107.7       107.6       107.5       107.2       106.8       106.4       105.9       105.3       104.7    
        104.0       103.2       102.3       101.3       100.3       99.14       98.04       96.97       95.92       94.90    
        93.62       92.39       91.21       90.10       89.05       88.05       87.10       86.18       85.32       84.51    
        83.74       83.00       82.29       81.60       80.94       80.28       79.64       79.00       78.37       77.73    
        77.10       76.45       75.79       75.11       74.40       73.64       72.84       71.96       71.01       70.00    
  29  -1000.0       108.1       108.0       107.8       107.6       107.3       106.9       106.4       105.8       105.2    
        104.4       103.7       102.8       101.8       100.8       99.65       98.55       97.47       96.42       95.39    
        94.20       93.03       91.89       90.79       89.73       88.71       87.74       86.82       85.94       85.10    
        84.29       83.52       82.77       82.04       81.34       80.64       79.96       79.28       78.61       77.94    
        77.26       76.58       75.88       75.16       74.41       73.63       72.80       71.92       70.98       70.00    
  30  -1000.0       108.5       108.4       108.2       108.0       107.7       107.3       106.8       106.2       105.6    
        104.9       104.1       103.2       102.3       101.2       100.1       99.02       97.94       96.88       95.84    
        94.70       93.58       92.47       91.39       90.33       89.30       88.32       87.38       86.48       85.62    
        84.79       83.98       83.21       82.45       81.71       80.98       80.27       79.56       78.85       78.15    
        77.44       76.72       75.98       75.23       74.45       73.64       72.79       71.91       70.97       70.00    
  31  -1000.0       108.8       108.7       108.6       108.3       108.0       107.6       107.2       106.6       106.0    
        105.3       104.5       103.7       102.7       101.7       100.5       99.45       98.37       97.30       96.26    
        95.16       94.06       92.98       91.91       90.85       89.82       88.84       87.89       86.97       86.09    
        85.24       84.41       83.61       82.82       82.06       81.30       80.56       79.82       79.09       78.35    
        77.61       76.86       76.09       75.31       74.51       73.67       72.81       71.91       70.98       70.00    
  32  -1000.0       109.1       109.0       108.9       108.7       108.4       108.0       107.5       107.0       106.4    
        105.7       104.9       104.0       103.1       102.1       100.9       99.84       98.76       97.69       96.64    
        95.57       94.49       93.42       92.37       91.32       90.29       89.30       88.34       87.41       86.52    
        85.65       84.80       83.98       83.17       82.38       81.60       80.83       80.07       79.31       78.55    
        77.78       77.00       76.21       75.40       74.57       73.72       72.84       71.93       70.98       70.00    
  33  -1000.0       109.4       109.3       109.2       109.0       108.7       108.3       107.8       107.3       106.7    
        106.0       105.2       104.4       103.4       102.4       101.3       100.2       99.11       98.04       96.99    
        95.93       94.88       93.82       92.78       91.73       90.70       89.71       88.75       87.81       86.90    
        86.02       85.16       84.32       83.49       82.68       81.89       81.10       80.31       79.52       78.74    
        77.94       77.14       76.33       75.50       74.65       73.78       72.88       71.96       71.00       70.00    
  34  -1000.0       109.7       109.6       109.5       109.2       108.9       108.6       108.1       107.6       107.0    
        106.3       105.5       104.7       103.8       102.7       101.6       100.5       99.44       98.37       97.31    
        96.27       95.23       94.18       93.14       92.10       91.08       90.08       89.11       88.17       87.26    
        86.36       85.49       84.63       83.79       82.97       82.16       81.34       80.54       79.73       78.92    
        78.10       77.28       76.44       75.60       74.73       73.84       72.93       71.99       71.01       70.00    
  35  -1000.0       109.9       109.8       109.7       109.5       109.2       108.8       108.4       107.9       107.3    
        106.6       105.8       105.0       104.0       103.0       101.9       100.8       99.73       98.66       97.61    
        96.57       95.54       94.50       93.47       92.44       91.41       90.42       89.45       88.50       87.58    
        86.68       85.79       84.93       84.08       83.24       82.40       81.58       80.75       79.92       79.09    
        78.26       77.41       76.56       75.69       74.81       73.90       72.98       72.02       71.03       70.00    
  36  -1000.0       110.1       110.1       109.9       109.7       109.4       109.1       108.6       108.1       107.5    
        106.8       106.1       105.2       104.3       103.3       102.2       101.1       100.0       98.93       97.87    
        96.85       95.82       94.80       93.77       92.74       91.72       90.72       89.75       88.80       87.87    
        86.96       86.07       85.20       84.34       83.48       82.64       81.79       80.95       80.10       79.26    
        78.40       77.54       76.67       75.79       74.89       73.97       73.02       72.05       71.04       70.00    
  37  -1000.0       110.3       110.3       110.1       109.9       109.6       109.3       108.8       108.3       107.7    
        107.0       106.3       105.4       104.5       103.5       102.4       101.3       100.2       99.17       98.12    
        97.10       96.08       95.06       94.03       93.01       91.99       91.00       90.03       89.07       88.14    
        87.23       86.34       85.45       84.58       83.71       82.85       81.99       81.13       80.27       79.41    
        78.54       77.67       76.78       75.88       74.97       74.03       73.07       72.08       71.06       70.00    
  38  -1000.0       110.5       110.4       110.3       110.1       109.8       109.4       109.0       108.5       107.9    
        107.2       106.5       105.6       104.7       103.7       102.6       101.5       100.5       99.39       98.33    
        97.32       96.31       95.29       94.27       93.25       92.24       91.25       90.28       89.33       88.39    
        87.48       86.58       85.69       84.80       83.92       83.05       82.17       81.30       80.43       79.55    
        78.67       77.78       76.88       75.97       75.04       74.09       73.11       72.11       71.08       70.00    
  39  -1000.0       110.7       110.6       110.4       110.2       109.9       109.6       109.2       108.6       108.1    
        107.4       106.7       105.8       104.9       103.9       102.8       101.7       100.6       99.59       98.53    
        97.52       96.51       95.50       94.49       93.47       92.46       91.47       90.51       89.56       88.62    
        87.70       86.80       85.89       85.00       84.11       83.23       82.34       81.46       80.57       79.68    
        78.79       77.89       76.98       76.05       75.11       74.14       73.16       72.14       71.09       70.00    
  40  -1000.0       110.8       110.7       110.6       110.4       110.1       109.7       109.3       108.8       108.2    
        107.5       106.8       106.0       105.1       104.1       103.0       101.9       100.8       99.76       98.70    
        97.70       96.70       95.69       94.68       93.67       92.67       91.68       90.71       89.77       88.83    
        87.91       86.99       86.08       85.18       84.28       83.39       82.49       81.60       80.70       79.81    
        78.90       77.99       77.06       76.12       75.17       74.19       73.19       72.17       71.10       70.00    
  41  -1000.0       110.9       110.8       110.7       110.5       110.2       109.8       109.4       108.9       108.3    
        107.7       106.9       106.1       105.2       104.2       103.1       102.0       101.0       99.91       98.86    
        97.86       96.86       95.86       94.86       93.85       92.85       91.87       90.90       89.96       89.02    
        88.09       87.17       86.25       85.34       84.44       83.53       82.63       81.73       80.82       79.91    
        79.00       78.07       77.14       76.19       75.23       74.24       73.23       72.19       71.12       70.00    
  42  -1000.0       111.0       110.9       110.8       110.6       110.3       109.9       109.5       109.0       108.4    
        107.8       107.0       106.2       105.3       104.3       103.2       102.2       101.1       100.0       98.99    
        98.00       97.00       96.01       95.01       94.01       93.01       92.04       91.07       90.12       89.18    
        88.25       87.32       86.40       85.49       84.57       83.66       82.75       81.84       80.93       80.01    
        79.09       78.15       77.21       76.25       75.28       74.28       73.26       72.21       71.13       70.00    
  43  -1000.0       111.2       111.0       110.8       110.6       110.3       110.0       109.5       109.0       108.5    
        107.8       107.1       106.3       105.4       104.4       103.3       102.3       101.2       100.2       99.11    
        98.12       97.13       96.13       95.14       94.15       93.16       92.18       91.22       90.27       89.33    
        88.39       87.46       86.53       85.61       84.69       83.77       82.86       81.94       81.02       80.09    
        79.16       78.22       77.27       76.30       75.32       74.32       73.29       72.23       71.14       70.00    
  44  -1000.0       111.2       111.1       110.9       110.6       110.4       110.0       109.6       109.1       108.5    
        107.9       107.2       106.4       105.5       104.5       103.4       102.4       101.3       100.2       99.20    
        98.22       97.23       96.24       95.25       94.27       93.28       92.31       91.35       90.39       89.45    
        88.51       87.57       86.64       85.72       84.79       83.87       82.95       82.03       81.10       80.17    
        79.23       78.28       77.32       76.35       75.36       74.35       73.31       72.25       71.15       70.00    
  45  -1000.0       111.3       111.2       111.0       110.7       110.4       110.0       109.6       109.1       108.6    
        107.9       107.2       106.4       105.5       104.6       103.5       102.4       101.4       100.3       99.28    
        98.30       97.31       96.33       95.35       94.36       93.38       92.41       91.45       90.50       89.55    
        88.60       87.67       86.73       85.80       84.88       83.95       83.02       82.10       81.16       80.23    
        79.28       78.33       77.37       76.39       75.39       74.38       73.33       72.26       71.15       70.00    
  46  -1000.0     -1000.0       111.2       111.0       110.7       110.4       110.0       109.6       109.1       108.6    
        107.9       107.2       106.4       105.6       104.6       103.5       102.5       101.4       100.4       99.34    
        98.36       97.38       96.40       95.42       94.44       93.46       92.50       91.53       90.58       89.63    
        88.68       87.74       86.81       85.88       84.95       84.02       83.08       82.15       81.22       80.27    
        79.33       78.37       77.40       76.42       75.42       74.40       73.35       72.27       71.16       70.00    
  47  -1000.0     -1000.0     -1000.0       110.9       110.7       110.4       110.0       109.6       109.1       108.5    
        107.9       107.2       106.5       105.6       104.6       103.6       102.5       101.5       100.4       99.39    
        98.41       97.43       96.45       95.48       94.50       93.52       92.56       91.59       90.64       89.69    
        88.74       87.80       86.86       85.93       85.00       84.06       83.13       82.19       81.25       80.31    
        79.36       78.40       77.43       76.44       75.44       74.41       73.36       72.28       71.16       70.00    
  48  -1000.0     -1000.0     -1000.0     -1000.0       110.6       110.4       110.0       109.6       109.0       108.5    
        107.9       107.2       106.5       105.6       104.7       103.6       102.6       101.5       100.5       99.42    
        98.45       97.47       96.49       95.51       94.54       93.56       92.60       91.63       90.68       89.73    
        88.78       87.84       86.90       85.96       85.03       84.09       83.16       82.22       81.28       80.33    
        79.38       78.42       77.44       76.46       75.45       74.42       73.37       72.29       71.17       70.00    
  49  -1000.0     -1000.0     -1000.0     -1000.0     -1000.0       110.3       110.0       109.6       109.1       108.5    
        107.9       107.2       106.5       105.6       104.7       103.6       102.6       101.5       100.5       99.44    
        98.46       97.48       96.51       95.53       94.56       93.58       92.62       91.65       90.70       89.75    
        88.80       87.86       86.92       85.98       85.05       84.11       83.17       82.24       81.29       80.35    
        79.39       78.43       77.45       76.46       75.46       74.43       73.38       72.29       71.17       70.00    
  50  -1000.0     -1000.0     -1000.0     -1000.0     -1000.0     -1000.0     -1000.0     -1000.0     -1000.0     -1000.0    
      -1000.0     -1000.0     -1000.0     -1000.0     -1000.0     -1000.0     -1000.0     -1000.0     -1000.0     -1000.0    
      -1000.0     -1000.0     -1000.0     -1000.0     -1000.0     -1000.0     -1000.0     -1000.0     -1000.0     -1000.0    
      -1000.0     -1000.0     -1000.0     -1000.0     -1000.0     -1000.0     -1000.0     -1000.0     -1000.0     -1000.0    
      -1000.0     -1000.0     -1000.0     -1000.0     -1000.0     -1000.0     -1000.0     -1000.0     -1000.0       70.00    
1
              HEAD IN LAYER   2 AT END OF TIME STEP   1 IN STRESS PERIOD    1
  ---------------------------------------------------------------------------

            1           2           3           4           5           6           7           8           9          10
           11          12          13          14          15          16          17          18          19          20
           21          22          23          24          25          26          27          28          29          30
           31          32          33          34          35          36          37          38          39          40
           41          42          43          44          45          46          47          48          49          50
 ........................................................................................................................
   1  -1000.0     -1000.0     -1000.0     -1000.0     -1000.0     -1000.0     -1000.0     -1000.0     -1000.0     -1000.0    
      -1000.0     -1000.0     -1000.0     -1000.0     -1000.0     -1000.0     -1000.0     -1000.0     -1000.0     -1000.0    
      -1000.0     -1000.0     -1000.0     -1000.0     -1000.0     -1000.0     -1000.0     -1000.0     -1000.0     -1000.0    
      -1000.0     -1000.0     -1000.0     -1000.0     -1000.0     -1000.0     -1000.0     -1000.0     -1000.0     -1000.0    
      -1000.0     -1000.0     -1000.0     -1000.0     -1000.0     -1000.0     -1000.0     -1000.0     -1000.0       70.00    
   2  -1000.0     -1000.0     -1000.0     -1000.0     -1000.0     -1000.0     -1000.0       108.0       107.5       106.9    
        106.3       105.7       104.9       104.0       103.1       102.1       101.0       100.0       99.00       98.00    
        96.98       95.98       94.99       94.01       93.04       92.08       91.13       90.19       89.25       88.32    
        87.39       86.47       85.56       84.64       83.74       82.83       81.93       81.03       80.13       79.23    
        78.33       77.43       76.52       75.61       74.69       73.77       72.84       71.90       70.95       70.00    
   3  -1000.0     -1000.0     -1000.0     -1000.0     -1000.0     -1000.0       108.5       108.0       107.5       106.9    
        106.3       105.7       104.9       104.0       103.1       102.0       101.0       99.99       98.98       97.98    
        96.96       95.96       94.97       94.00       93.03       92.07       91.12       90.17       89.23       88.30    
        87.38       86.46       85.54       84.63       83.73       82.82       81.92       81.02       80.12       79.22    
        78.32       77.42       76.51       75.60       74.69       73.76       72.83       71.89       70.95       70.00    
   4  -1000.0     -1000.0     -1000.0     -1000.0     -1000.0       108.9       108.5       108.0       107.5       107.0    
        106.3       105.6       104.9       104.0       103.0       102.0       101.0       99.95       98.94       97.94    
        96.93       95.93       94.94       93.96       93.00       92.04       91.08       90.14       89.20       88.27    
        87.35       86.43       85.52       84.61       83.70       82.80       81.90       81.00       80.10       79.20    
        78.30       77.40       76.50       75.59       74.68       73.76       72.83       71.89       70.95       70.00    
   5  -1000.0     -1000.0     -1000.0     -1000.0       109.2       108.9       108.4       108.0       107.5       107.0    
        106.3       105.6       104.8       103.9       103.0       101.9       100.9       99.90       98.89       97.89    
        96.88       95.88       94.89       93.91       92.95       91.99       91.04       90.10       89.16       88.23    
        87.31       86.39       85.48       84.57       83.66       82.76       81.86       80.97       80.07       79.18    
        78.28       77.38       76.48       75.57       74.66       73.74       72.82       71.88       70.94       70.00    
   6  -1000.0     -1000.0     -1000.0       109.5       109.2       108.8       108.4       108.0       107.5       106.9    
        106.3       105.6       104.8       103.9       102.9       101.9       100.8       99.82       98.81       97.82    
        96.81       95.81       94.82       93.85       92.88       91.93       90.98       90.04       89.10       88.17    
        87.25       86.33       85.42       84.51       83.61       82.71       81.82       80.92       80.03       79.14    
        78.24       77.35       76.45       75.55       74.64       73.73       72.80       71.88       70.94       70.00    
   7  -1000.0     -1000.0       109.6       109.4       109.1       108.8       108.4       108.0       107.5       106.9    
        106.2       105.5       104.7       103.8       102.8       101.8       100.7       99.72       98.71       97.72    
        96.72       95.72       94.74       93.77       92.81       91.85       90.90       89.96       89.03       88.10    
        87.18       86.26       85.35       84.45       83.55       82.65       81.76       80.87       79.98       79.09    
        78.20       77.31       76.42       75.52       74.61       73.71       72.79       71.87       70.93       70.00    
   8  -1000.0       109.7       109.6       109.3       109.1       108.8       108.4       108.0       107.4       106.8    
        106.1       105.4       104.6       103.7       102.7       101.6       100.6       99.59       98.60       97.61    
        96.61       95.62       94.64       93.67       92.71       91.76       90.81       89.87       88.94       88.01    
        87.09       86.18       85.27       84.37       83.47       82.58       81.69       80.80       79.92       79.03    
        78.15       77.26       76.37       75.48       74.58       73.68       72.77       71.85       70.93       70.00    
   9  -1000.0       109.6       109.4       109.3       109.0       108.7       108.4       107.9       107.4       106.7    
        106.0       105.3       104.4       103.5       102.5       101.5       100.4       99.44       98.46       97.49    
        96.49       95.51       94.53       93.57       92.61       91.65       90.71       89.77       88.84       87.91    
        87.00       86.08       85.18       84.28       83.38       82.49       81.61       80.72       79.84       78.96    
        78.09       77.21       76.32       75.44       74.55       73.65       72.75       71.84       70.92       70.00    
  10  -1000.0       109.4       109.4       109.2       109.0       108.7       108.3       107.8       107.3       106.6    
        105.9       105.1       104.2       103.3       102.3       101.2       100.3       99.28       98.31       97.34    
        96.36       95.38       94.41       93.44       92.48       91.53       90.59       89.65       88.72       87.80    
        86.88       85.97       85.07       84.18       83.28       82.40       81.51       80.64       79.76       78.89    
        78.01       77.14       76.27       75.39       74.51       73.62       72.72       71.82       70.91       70.00    
  11  -1000.0       109.4       109.3       109.1       108.9       108.6       108.2       107.7       107.2       106.5    
        105.8       105.0       104.0       103.0       102.0       101.0       100.0       99.09       98.14       97.19    
        96.21       95.24       94.27       93.31       92.35       91.40       90.45       89.52       88.59       87.67    
        86.76       85.85       84.95       84.06       83.17       82.29       81.41       80.54       79.67       78.80    
        77.93       77.07       76.20       75.33       74.46       73.58       72.70       71.80       70.90       70.00    
  12  -1000.0       109.2       109.2       109.0       108.8       108.5       108.1       107.6       107.0       106.4    
        105.6       104.8       103.8       102.7       101.5       100.6       99.79       98.89       97.97       97.03    
        96.05       95.09       94.12       93.16       92.20       91.25       90.31       89.37       88.45       87.53    
        86.62       85.71       84.82       83.93       83.04       82.16       81.29       80.42       79.56       78.70    
        77.84       76.99       76.13       75.27       74.41       73.54       72.66       71.78       70.89       70.00    
  13  -1000.0       109.1       109.1       108.9       108.7       108.4       108.0       107.5       106.9       106.3    
        105.5       104.6       103.6       102.4       100.6       100.3       99.57       98.71       97.80       96.86    
        95.89       94.92       93.96       93.00       92.04       91.09       90.15       89.22       88.29       87.37    
        86.47       85.56       84.67       83.78       82.90       82.03       81.16       80.30       79.44       78.59    
        77.75       76.90       76.05       75.21       74.35       73.50       72.63       71.76       70.88       70.00    
  14  -1000.0       109.0       108.9       108.8       108.5       108.2       107.8       107.4       106.8       106.1    
        105.4       104.5       103.5       102.4       101.2       100.3       99.47       98.57       97.64       96.70    
        95.73       94.76       93.79       92.83       91.87       90.92       89.98       89.04       88.12       87.21    
        86.30       85.40       84.51       83.63       82.75       81.88       81.02       80.16       79.31       78.47    
        77.64       76.80       75.97       75.13       74.30       73.45       72.60       71.74       70.87       70.00    
  15  -1000.0       108.9       108.8       108.6       108.4       108.1       107.7       107.2       106.6       106.0    
        105.2       104.4       103.5       102.4       101.4       100.4       99.39       98.44       97.49       96.54    
        95.55       94.58       93.61       92.64       91.68       90.73       89.79       88.86       87.94       87.03    
        86.12       85.23       84.34       83.46       82.58       81.72       80.86       80.01       79.17       78.34    
        77.52       76.70       75.88       75.06       74.23       73.40       72.56       71.71       70.86       70.00    
  16  -1000.0       108.7       108.6       108.5       108.2       107.9       107.5       107.0       106.5       105.8    
        105.1       104.3       103.4       102.4       101.4       100.3       99.29       98.31       97.34       96.36    
        95.37       94.39       93.42       92.45       91.49       90.54       89.60       88.67       87.75       86.84    
        85.94       85.04       84.16       83.28       82.41       81.55       80.69       79.85       79.02       78.20    
        77.39       76.59       75.78       74.98       74.17       73.35       72.53       71.69       70.85       70.00    
  17  -1000.0       108.5       108.4       108.3       108.0       107.7       107.3       106.9       106.3       105.6    
        104.9       104.1       103.2       102.3       101.3       100.2       99.16       98.16       97.17       96.18    
        95.18       94.19       93.21       92.24       91.28       90.33       89.39       88.46       87.54       86.64    
        85.74       84.85       83.97       83.09       82.22       81.36       80.51       79.68       78.86       78.05    
        77.26       76.47       75.69       74.90       74.11       73.30       72.49       71.67       70.84       70.00    
  18  -1000.0       108.3       108.2       108.1       107.8       107.5       107.1       106.6       106.1       105.4    
        104.7       103.9       103.1       102.1       101.1       100.0       98.99       97.98       96.98       95.98    
        94.97       93.97       92.99       92.02       91.05       90.11       89.17       88.24       87.33       86.43    
        85.53       84.65       83.77       82.90       82.03       81.17       80.33       79.50       78.68       77.89    
        77.12       76.35       75.59       74.82       74.05       73.26       72.46       71.65       70.83       70.00    
  19  -1000.0       108.1       108.0       107.9       107.6       107.3       106.9       106.4       105.8       105.2    
        104.5       103.7       102.8       101.9       100.9       99.82       98.78       97.77       96.78       95.77    
        94.75       93.74       92.75       91.78       90.82       89.87       88.94       88.02       87.11       86.22    
        85.33       84.45       83.57       82.70       81.84       80.98       80.14       79.31       78.50       77.73    
        76.98       76.24       75.50       74.75       73.99       73.22       72.43       71.63       70.82       70.00    
  20  -1000.0       107.9       107.8       107.6       107.4       107.0       106.6       106.1       105.6       104.9    
        104.2       103.4       102.6       101.6       100.6       99.55       98.52       97.53       96.57       95.56    
        94.52       93.49       92.50       91.53       90.57       89.63       88.71       87.79       86.89       86.00    
        85.12       84.25       83.38       82.51       81.65       80.80       79.95       79.12       78.32       77.57    
        76.85       76.13       75.41       74.69       73.95       73.19       72.41       71.62       70.81       70.00    
  21  -1000.0       107.6       107.5       107.4       107.1       106.8       106.3       105.9       105.3       104.6    
        103.9       103.1       102.2       101.3       100.3       99.23       98.21       97.25       96.39       95.39    
        94.26       93.22       92.23       91.26       90.32       89.39       88.47       87.57       86.67       85.79    
        84.92       84.06       83.20       82.34       81.48       80.63       79.78       78.95       78.15       77.42    
        76.73       76.04       75.35       74.64       73.92       73.17       72.40       71.62       70.81       70.00    
  22  -1000.0       107.3       107.3       107.1       106.8       106.5       106.0       105.5       104.9       104.3    
        103.6       102.8       101.9       100.9       99.93       98.85       97.82       96.86       96.00       95.00    
        93.91       92.91       91.94       91.00       90.07       89.15       88.25       87.35       86.47       85.60    
        84.74       83.88       83.03       82.19       81.34       80.50       79.65       78.82       78.01       77.32    
        76.65       75.99       75.31       74.62       73.90       73.17       72.40       71.62       70.82       70.00    
  23  -1000.0       107.1       107.0       106.8       106.5       106.1       105.7       105.2       104.6       103.9    
        103.2       102.3       101.5       100.5       99.49       98.40       97.35       96.35       95.39       94.39    
        93.49       92.58       91.67       90.76       89.85       88.95       88.05       87.17       86.30       85.43    
        84.58       83.74       82.91       82.07       81.24       80.41       79.59       78.78       78.00       77.30    
        76.63       75.97       75.30       74.61       73.91       73.18       72.42       71.63       70.83       70.00    
  24  -1000.0       106.8       106.7       106.5       106.2       105.8       105.3       104.8       104.2       103.5    
        102.7       101.9       101.0       100.0       99.00       97.89       96.82       95.79       94.79       93.79    
        93.10       92.31       91.45       90.57       89.69       88.80       87.92       87.04       86.17       85.32    
        84.48       83.65       82.83       82.01       81.19       80.38       79.58       78.80       78.05       77.34    
        76.66       75.99       75.32       74.63       73.93       73.20       72.44       71.65       70.84       70.00    
  25  -1000.0       106.5       106.4       106.2       105.8       105.4       104.9       104.3       103.7       103.0    
        102.2       101.4       100.5       99.49       98.44       97.33       96.24       95.19       94.17       93.18    
        92.86       92.18       91.36       90.50       89.63       88.76       87.87       87.00       86.14       85.29    
        84.46       83.63       82.82       82.01       81.21       80.41       79.63       78.86       78.12       77.41    
        76.72       76.04       75.36       74.67       73.96       73.23       72.47       71.68       70.85       70.00    
  26  -1000.0       106.9       106.8       106.6       106.3       105.9       105.4       104.9       104.3       103.6    
        102.8       102.0       101.1       100.1       99.10       97.98       96.89       95.83       94.80       93.80    
        93.12       92.34       91.50       90.63       89.75       88.87       87.99       87.11       86.25       85.40    
        84.56       83.74       82.92       82.12       81.32       80.53       79.75       78.99       78.25       77.53    
        76.82       76.12       75.42       74.71       73.99       73.24       72.47       71.68       70.85       70.00    
  27  -1000.0       107.3       107.2       107.0       106.8       106.4       106.0       105.4       104.8       104.2    
        103.4       102.6       101.7       100.8       99.71       98.58       97.49       96.42       95.38       94.37    
        93.52       92.66       91.77       90.88       89.98       89.09       88.20       87.32       86.45       85.59    
        84.75       83.92       83.10       82.29       81.48       80.69       79.91       79.15       78.40       77.66    
        76.93       76.22       75.49       74.77       74.02       73.26       72.48       71.67       70.84       70.00    
  28  -1000.0       107.7       107.6       107.5       107.2       106.8       106.4       105.9       105.3       104.7    
        104.0       103.2       102.3       101.3       100.3       99.14       98.04       96.97       95.92       94.90    
        93.96       93.04       92.11       91.19       90.28       89.37       88.47       87.57       86.70       85.83    
        84.98       84.14       83.31       82.49       81.68       80.88       80.10       79.32       78.56       77.81    
        77.06       76.32       75.58       74.83       74.07       73.29       72.49       71.68       70.84       70.00    
  29  -1000.0       108.1       108.0       107.8       107.6       107.3       106.9       106.4       105.8       105.2    
        104.4       103.7       102.8       101.8       100.8       99.65       98.55       97.47       96.42       95.39    
        94.40       93.44       92.48       91.54       90.60       89.68       88.76       87.86       86.97       86.09    
        85.23       84.38       83.54       82.71       81.90       81.09       80.29       79.50       78.73       77.96    
        77.19       76.43       75.67       74.90       74.12       73.32       72.51       71.69       70.85       70.00    
  30  -1000.0       108.5       108.4       108.2       108.0       107.7       107.3       106.8       106.2       105.6    
        104.9       104.1       103.2       102.3       101.2       100.1       99.02       97.94       96.88       95.84    
        94.82       93.83       92.85       91.89       90.94       90.00       89.07       88.16       87.26       86.37    
        85.49       84.63       83.78       82.94       82.12       81.30       80.49       79.69       78.90       78.11    
        77.33       76.55       75.76       74.97       74.17       73.36       72.54       71.70       70.86       70.00    
  31  -1000.0       108.8       108.7       108.6       108.3       108.0       107.6       107.2       106.6       106.0    
        105.3       104.5       103.7       102.7       101.7       100.5       99.45       98.37       97.30       96.26    
        95.22       94.21       93.21       92.23       91.27       90.31       89.38       88.45       87.54       86.64    
        85.76       84.89       84.03       83.18       82.34       81.51       80.68       79.87       79.06       78.26    
        77.46       76.66       75.86       75.05       74.23       73.41       72.57       71.72       70.86       70.00    
  32  -1000.0       109.1       109.0       108.9       108.7       108.4       108.0       107.5       107.0       106.4    
        105.7       104.9       104.0       103.1       102.1       100.9       99.84       98.76       97.69       96.64    
        95.59       94.56       93.56       92.56       91.59       90.62       89.67       88.74       87.82       86.91    
        86.02       85.13       84.26       83.40       82.55       81.71       80.88       80.05       79.23       78.41    
        77.59       76.77       75.95       75.13       74.30       73.46       72.61       71.74       70.88       70.00    
  33  -1000.0       109.4       109.3       109.2       109.0       108.7       108.3       107.8       107.3       106.7    
        106.0       105.2       104.4       103.4       102.4       101.3       100.2       99.11       98.04       96.99    
        95.93       94.90       93.88       92.88       91.89       90.92       89.96       89.01       88.08       87.17    
        86.26       85.37       84.49       83.62       82.76       81.91       81.06       80.22       79.38       78.55    
        77.72       76.89       76.05       75.21       74.36       73.51       72.64       71.77       70.89       70.00    
  34  -1000.0       109.7       109.6       109.5       109.2       108.9       108.6       108.1       107.6       107.0    
        106.3       105.5       104.7       103.8       102.7       101.6       100.5       99.44       98.37       97.31    
        96.25       95.21       94.18       93.17       92.18       91.20       90.23       89.28       88.34       87.41    
        86.50       85.60       84.71       83.83       82.96       82.09       81.24       80.38       79.54       78.69    
        77.84       76.99       76.14       75.29       74.43       73.56       72.68       71.79       70.90       70.00    
  35  -1000.0       109.9       109.8       109.7       109.5       109.2       108.8       108.4       107.9       107.3    
        106.6       105.8       105.0       104.0       103.0       101.9       100.8       99.73       98.66       97.61    
        96.54       95.49       94.46       93.45       92.44       91.46       90.48       89.52       88.58       87.64    
        86.72       85.82       84.92       84.03       83.15       82.27       81.40       80.54       79.68       78.82    
        77.96       77.10       76.23       75.37       74.49       73.61       72.72       71.82       70.91       70.00    
  36  -1000.0       110.1       110.1       109.9       109.7       109.4       109.1       108.6       108.1       107.5    
        106.8       106.1       105.2       104.3       103.3       102.2       101.1       100.0       98.93       97.87    
        96.80       95.75       94.72       93.70       92.69       91.70       90.72       89.75       88.80       87.86    
        86.93       86.02       85.11       84.21       83.32       82.44       81.56       80.69       79.81       78.94    
        78.07       77.20       76.32       75.44       74.55       73.66       72.75       71.84       70.92       70.00    
  37  -1000.0       110.3       110.3       110.1       109.9       109.6       109.3       108.8       108.3       107.7    
        107.0       106.3       105.4       104.5       103.5       102.4       101.3       100.2       99.17       98.12    
        97.04       95.99       94.95       93.93       92.92       91.92       90.94       89.97       89.01       88.06    
        87.13       86.21       85.29       84.39       83.49       82.60       81.71       80.82       79.94       79.06    
        78.18       77.29       76.40       75.51       74.61       73.70       72.79       71.86       70.93       70.00    
  38  -1000.0       110.5       110.4       110.3       110.1       109.8       109.4       109.0       108.5       107.9    
        107.2       106.5       105.6       104.7       103.7       102.6       101.5       100.5       99.39       98.33    
        97.26       96.21       95.17       94.14       93.13       92.13       91.14       90.16       89.20       88.25    
        87.31       86.38       85.46       84.55       83.64       82.74       81.85       80.95       80.06       79.17    
        78.27       77.38       76.48       75.57       74.66       73.75       72.82       71.89       70.95       70.00    
  39  -1000.0       110.7       110.6       110.4       110.2       109.9       109.6       109.2       108.6       108.1    
        107.4       106.7       105.8       104.9       103.9       102.8       101.7       100.6       99.59       98.53    
        97.46       96.40       95.36       94.33       93.32       92.31       91.32       90.35       89.38       88.43    
        87.48       86.55       85.62       84.70       83.79       82.88       81.97       81.07       80.17       79.27    
        78.36       77.46       76.55       75.64       74.72       73.79       72.85       71.91       70.96       70.00    
  40  -1000.0       110.8       110.7       110.6       110.4       110.1       109.7       109.3       108.8       108.2    
        107.5       106.8       106.0       105.1       104.1       103.0       101.9       100.8       99.76       98.70    
        97.63       96.58       95.54       94.51       93.49       92.48       91.49       90.51       89.54       88.58    
        87.63       86.69       85.76       84.83       83.91       83.00       82.09       81.18       80.27       79.36    
        78.45       77.53       76.61       75.69       74.76       73.83       72.88       71.93       70.97       70.00    
  41  -1000.0       110.9       110.8       110.7       110.5       110.2       109.8       109.4       108.9       108.3    
        107.7       106.9       106.1       105.2       104.2       103.1       102.0       101.0       99.91       98.86    
        97.79       96.73       95.69       94.66       93.64       92.64       91.64       90.66       89.69       88.72    
        87.77       86.83       85.89       84.96       84.03       83.11       82.19       81.27       80.36       79.44    
        78.52       77.60       76.67       75.74       74.80       73.86       72.91       71.94       70.97       70.00    
  42  -1000.0       111.0       110.9       110.8       110.6       110.3       109.9       109.5       109.0       108.4    
        107.8       107.0       106.2       105.3       104.3       103.2       102.2       101.1       100.0       98.99    
        97.92       96.87       95.83       94.80       93.78       92.77       91.78       90.79       89.82       88.85    
        87.89       86.94       86.00       85.07       84.13       83.21       82.28       81.36       80.43       79.51    
        78.59       77.66       76.73       75.79       74.84       73.89       72.93       71.96       70.98       70.00    
  43  -1000.0       111.2       111.0       110.8       110.6       110.3       110.0       109.5       109.0       108.5    
        107.8       107.1       106.3       105.4       104.4       103.3       102.3       101.2       100.2       99.11    
        98.04       96.99       95.94       94.92       93.90       92.89       91.89       90.91       89.93       88.96    
        88.00       87.05       86.10       85.16       84.22       83.29       82.36       81.43       80.50       79.58    
        78.64       77.71       76.77       75.83       74.88       73.92       72.95       71.97       70.99       70.00    
  44  -1000.0     -1000.0       111.1       110.9       110.6       110.4       110.0       109.6       109.1       108.5    
        107.9       107.2       106.4       105.5       104.5       103.4       102.4       101.3       100.2       99.20    
        98.14       97.08       96.05       95.02       94.00       92.99       91.99       91.00       90.03       89.05    
        88.09       87.14       86.19       85.24       84.30       83.36       82.43       81.50       80.56       79.63    
        78.69       77.76       76.81       75.86       74.91       73.94       72.97       71.99       71.00       70.00    
  45  -1000.0     -1000.0     -1000.0       111.0       110.7       110.4       110.0       109.6       109.1       108.6    
        107.9       107.2       106.4       105.5       104.6       103.5       102.4       101.4       100.3       99.28    
        98.22       97.17       96.13       95.10       94.08       93.07       92.08       91.09       90.11       89.13    
        88.17       87.21       86.26       85.31       84.37       83.43       82.49       81.55       80.61       79.68    
        78.74       77.79       76.84       75.89       74.93       73.96       72.98       71.99       71.00       70.00    
  46  -1000.0     -1000.0     -1000.0     -1000.0       110.7       110.4       110.0       109.6       109.1       108.6    
        107.9       107.2       106.4       105.6       104.6       103.5       102.5       101.4       100.4       99.34    
        98.28       97.23       96.19       95.17       94.15       93.14       92.14       91.15       90.17       89.20    
        88.23       87.27       86.31       85.36       84.42       83.48       82.53       81.59       80.65       79.71    
        78.77       77.82       76.87       75.91       74.95       73.98       72.99       72.00       71.00       70.00    
  47  -1000.0     -1000.0     -1000.0     -1000.0     -1000.0       110.4       110.0       109.6       109.1       108.5    
        107.9       107.2       106.5       105.6       104.6       103.6       102.5       101.5       100.4       99.39    
        98.33       97.28       96.24       95.22       94.20       93.19       92.19       91.20       90.22       89.24    
        88.28       87.31       86.36       85.41       84.46       83.51       82.57       81.63       80.68       79.74    
        78.80       77.85       76.89       75.93       74.96       73.99       73.00       72.01       71.01       70.00    
  48  -1000.0     -1000.0     -1000.0     -1000.0     -1000.0     -1000.0       110.0       109.6       109.0       108.5    
        107.9       107.2       106.5       105.6       104.7       103.6       102.6       101.5       100.5       99.42    
        98.36       97.31       96.28       95.25       94.23       93.22       92.23       91.23       90.25       89.27    
        88.31       87.34       86.39       85.43       84.48       83.54       82.59       81.65       80.70       79.76    
        78.81       77.86       76.90       75.94       74.97       74.00       73.01       72.01       71.01       70.00    
  49  -1000.0     -1000.0     -1000.0     -1000.0     -1000.0     -1000.0     -1000.0       109.6       109.1       108.5    
        107.9       107.2       106.5       105.6       104.7       103.6       102.6       101.5       100.5       99.44    
        98.38       97.33       96.29       95.27       94.25       93.24       92.24       91.25       90.27       89.29    
        88.32       87.36       86.40       85.45       84.50       83.55       82.60       81.66       80.71       79.77    
        78.82       77.87       76.91       75.95       74.98       74.00       73.01       72.01       71.01       70.00    
  50  -1000.0     -1000.0     -1000.0     -1000.0     -1000.0     -1000.0     -1000.0     -1000.0     -1000.0     -1000.0    
      -1000.0     -1000.0     -1000.0     -1000.0     -1000.0     -1000.0     -1000.0     -1000.0     -1000.0     -1000.0    
      -1000.0     -1000.0     -1000.0     -1000.0     -1000.0     -1000.0     -1000.0     -1000.0     -1000.0     -1000.0    
      -1000.0     -1000.0     -1000.0     -1000.0     -1000.0     -1000.0     -1000.0     -1000.0     -1000.0     -1000.0    
      -1000.0     -1000.0     -1000.0     -1000.0     -1000.0     -1000.0     -1000.0     -1000.0     -1000.0       70.00    
1
              HEAD IN LAYER   3 AT END OF TIME STEP   1 IN STRESS PERIOD    1
  ---------------------------------------------------------------------------

            1           2           3           4           5           6           7           8           9          10
           11          12          13          14          15          16          17          18          19          20
           21          22          23          24          25          26          27          28          29          30
           31          32          33          34          35          36          37          38          39          40
[...]
        93.73       93.05       92.32       91.55       90.75       89.91       89.05       88.18       87.28       86.36    
        85.43       84.47       83.49       82.47       81.41       80.29       79.07       77.74       76.41       76.08    
        75.75       75.30       74.76       74.16       73.52       72.84       72.15       71.44       70.72       70.00    
  24  -1000.0       106.8       106.7       106.5       106.2       105.8       105.3       104.8       104.2       103.5    
        102.7       101.9       101.0       100.0       99.00       97.89       96.82       95.79       94.79       93.79    
        93.39       92.85       92.21       91.48       90.70       89.89       89.04       88.17       87.28       86.37    
        85.44       84.49       83.52       82.53       81.50       80.44       79.34       78.24       77.24       76.58    
        76.02       75.45       74.85       74.22       73.56       72.87       72.17       71.45       70.73       70.00    
  25  -1000.0       106.5       106.4       106.2       105.8       105.4       104.9       104.3       103.7       103.0    
        102.2       101.4       100.5       99.49       98.45       97.33       96.25       95.19       94.17       93.18    
        93.19       92.78       92.18       91.48       90.71       89.90       89.06       88.20       87.31       86.41    
        85.49       84.55       83.60       82.62       81.63       80.62       79.61       78.63       77.72       76.96    
        76.28       75.63       74.97       74.30       73.61       72.91       72.19       71.47       70.74       70.00    
  26  -1000.0       106.9       106.8       106.6       106.3       105.9       105.4       104.9       104.3       103.6    
        102.8       102.0       101.1       100.1       99.10       97.98       96.89       95.83       94.80       93.80    
        93.41       92.89       92.26       91.55       90.78       89.97       89.12       88.26       87.38       86.48    
        85.56       84.63       83.69       82.74       81.78       80.82       79.86       78.93       78.06       77.26    
        76.52       75.81       75.10       74.40       73.68       72.96       72.23       71.49       70.75       70.00    
  27  -1000.0       107.3       107.2       107.0       106.8       106.4       106.0       105.4       104.8       104.2    
        103.4       102.6       101.7       100.8       99.71       98.58       97.49       96.42       95.38       94.37    
        93.77       93.12       92.43       91.68       90.89       90.07       89.22       88.35       87.47       86.57    
        85.66       84.74       83.81       82.88       81.94       81.00       80.08       79.18       78.32       77.51    
        76.73       75.98       75.24       74.50       73.76       73.02       72.27       71.51       70.76       70.00    
  28  -1000.0       107.7       107.6       107.5       107.2       106.8       106.4       105.9       105.3       104.7    
        104.0       103.2       102.3       101.3       100.3       99.14       98.04       96.97       95.92       94.90    
        94.16       93.42       92.65       91.86       91.04       90.20       89.34       88.47       87.58       86.68    
        85.77       84.86       83.94       83.02       82.10       81.18       80.28       79.39       78.54       77.71    
        76.91       76.13       75.36       74.60       73.84       73.07       72.31       71.54       70.77       70.00    
  29  -1000.0       108.1       108.0       107.8       107.6       107.3       106.9       106.4       105.8       105.2    
        104.4       103.6       102.8       101.8       100.8       99.65       98.55       97.47       96.42       95.39    
        94.56       93.74       92.91       92.08       91.23       90.37       89.49       88.61       87.71       86.81    
        85.90       84.99       84.08       83.16       82.25       81.35       80.46       79.58       78.72       77.89    
        77.07       76.27       75.48       74.69       73.91       73.13       72.35       71.57       70.78       70.00    
  30  -1000.0       108.5       108.4       108.2       108.0       107.7       107.3       106.8       106.2       105.6    
        104.9       104.1       103.2       102.3       101.2       100.1       99.02       97.94       96.88       95.84    
        94.94       94.06       93.19       92.32       91.44       90.55       89.66       88.76       87.86       86.95    
        86.05       85.13       84.22       83.31       82.41       81.51       80.62       79.75       78.89       78.04    
        77.21       76.39       75.59       74.78       73.98       73.19       72.39       71.59       70.80       70.00    
  31  -1000.0       108.8       108.7       108.6       108.3       108.0       107.6       107.2       106.6       106.0    
        105.3       104.5       103.7       102.7       101.7       100.5       99.45       98.37       97.30       96.26    
        95.31       94.38       93.47       92.56       91.66       90.75       89.84       88.93       88.02       87.11    
        86.19       85.28       84.37       83.46       82.56       81.66       80.78       79.90       79.03       78.18    
        77.34       76.51       75.69       74.87       74.05       73.24       72.43       71.62       70.81       70.00    
  32  -1000.0       109.1       109.0       108.9       108.7       108.4       108.0       107.5       107.0       106.4    
        105.7       104.9       104.0       103.1       102.1       100.9       99.84       98.76       97.69       96.64    
        95.65       94.69       93.74       92.81       91.88       90.95       90.03       89.10       88.18       87.26    
        86.35       85.43       84.52       83.61       82.70       81.81       80.92       80.04       79.17       78.31    
        77.46       76.61       75.78       74.95       74.12       73.29       72.47       71.65       70.82       70.00    
  33  -1000.0       109.4       109.3       109.2       109.0       108.7       108.3       107.8       107.3       106.7    
        106.0       105.2       104.4       103.4       102.4       101.3       100.2       99.11       98.04       96.99    
        95.98       94.98       94.01       93.05       92.10       91.15       90.22       89.28       88.35       87.42    
        86.50       85.58       84.66       83.75       82.85       81.95       81.05       80.17       79.29       78.43    
        77.57       76.71       75.86       75.02       74.18       73.34       72.51       71.67       70.84       70.00    
  34  -1000.0       109.7       109.6       109.5       109.2       108.9       108.6       108.1       107.6       107.0    
        106.3       105.5       104.7       103.8       102.7       101.6       100.5       99.44       98.37       97.31    
        96.28       95.26       94.26       93.28       92.31       91.35       90.40       89.46       88.52       87.58    
        86.65       85.72       84.80       83.89       82.98       82.08       81.18       80.29       79.41       78.53    
        77.67       76.80       75.94       75.09       74.24       73.39       72.54       71.69       70.85       70.00    
  35  -1000.0       109.9       109.8       109.7       109.5       109.2       108.8       108.4       107.9       107.3    
        106.6       105.8       105.0       104.0       103.0       101.9       100.8       99.73       98.66       97.61    
        96.55       95.52       94.50       93.51       92.52       91.55       90.58       89.63       88.68       87.74    
        86.80       85.87       84.94       84.02       83.11       82.20       81.30       80.41       79.52       78.64    
        77.76       76.89       76.02       75.15       74.29       73.43       72.57       71.72       70.86       70.00    
  36  -1000.0       110.1       110.1       109.9       109.7       109.4       109.1       108.6       108.1       107.5    
        106.8       106.1       105.2       104.3       103.3       102.2       101.1       100.0       98.93       97.87    
        96.80       95.76       94.73       93.72       92.72       91.73       90.76       89.79       88.84       87.89    
        86.94       86.01       85.07       84.15       83.23       82.32       81.41       80.51       79.62       78.73    
        77.84       76.96       76.09       75.21       74.34       73.47       72.60       71.74       70.87       70.00    
  37  -1000.0       110.3       110.3       110.1       109.9       109.6       109.3       108.8       108.3       107.7    
        107.0       106.3       105.4       104.5       103.5       102.4       101.3       100.2       99.17       98.12    
        97.04       95.98       94.94       93.91       92.91       91.91       90.93       89.95       88.99       88.03    
        87.08       86.14       85.20       84.27       83.35       82.43       81.52       80.61       79.71       78.82    
        77.92       77.04       76.15       75.27       74.39       73.51       72.63       71.75       70.88       70.00    
  38  -1000.0       110.5       110.4       110.3       110.1       109.8       109.4       109.0       108.5       107.9    
        107.2       106.5       105.6       104.7       103.7       102.6       101.5       100.5       99.39       98.33    
        97.25       96.18       95.13       94.10       93.08       92.08       91.08       90.10       89.13       88.16    
        87.21       86.26       85.32       84.38       83.46       82.53       81.62       80.70       79.80       78.89    
        78.00       77.10       76.21       75.32       74.43       73.54       72.66       71.77       70.89       70.00    
  39  -1000.0       110.7       110.6       110.4       110.2       109.9       109.6       109.2       108.6       108.1    
        107.4       106.7       105.8       104.9       103.9       102.8       101.7       100.6       99.59       98.53    
        97.44       96.36       95.30       94.26       93.24       92.23       91.23       90.24       89.26       88.29    
        87.33       86.38       85.43       84.49       83.56       82.63       81.71       80.79       79.88       78.97    
        78.06       77.16       76.26       75.36       74.47       73.57       72.68       71.79       70.89       70.00    
  40  -1000.0       110.8       110.7       110.6       110.4       110.1       109.7       109.3       108.8       108.2    
        107.5       106.8       106.0       105.1       104.1       103.0       101.9       100.8       99.76       98.70    
        97.60       96.52       95.46       94.42       93.38       92.37       91.36       90.37       89.38       88.41    
        87.44       86.48       85.53       84.59       83.65       82.72       81.79       80.87       79.95       79.03    
        78.12       77.22       76.31       75.41       74.50       73.60       72.70       71.80       70.90       70.00    
  41  -1000.0       110.9       110.8       110.7       110.5       110.2       109.8       109.4       108.9       108.3    
        107.7       106.9       106.1       105.2       104.2       103.1       102.0       101.0       99.91       98.86    
        97.75       96.67       95.60       94.55       93.52       92.49       91.48       90.48       89.49       88.51    
        87.54       86.58       85.62       84.67       83.73       82.79       81.86       80.94       80.01       79.09    
        78.18       77.27       76.35       75.44       74.54       73.63       72.72       71.81       70.91       70.00    
  42  -1000.0     -1000.0       110.9       110.8       110.5       110.3       109.9       109.5       109.0       108.4    
        107.8       107.0       106.2       105.3       104.3       103.2       102.2       101.1       100.0       98.99    
        97.89       96.80       95.73       94.67       93.63       92.60       91.59       90.59       89.59       88.61    
        87.63       86.67       85.71       84.75       83.81       82.87       81.93       81.00       80.07       79.15    
        78.23       77.31       76.39       75.48       74.56       73.65       72.74       71.82       70.91       70.00    
  43  -1000.0     -1000.0     -1000.0       110.8       110.6       110.3       110.0       109.5       109.0       108.5    
        107.8       107.1       106.3       105.4       104.4       103.3       102.3       101.2       100.2       99.11    
        98.00       96.91       95.84       94.78       93.73       92.70       91.68       90.68       89.68       88.69    
        87.71       86.74       85.78       84.82       83.87       82.93       81.99       81.05       80.12       79.19    
        78.27       77.35       76.43       75.51       74.59       73.67       72.75       71.83       70.92       70.00    
  44  -1000.0     -1000.0     -1000.0     -1000.0       110.6       110.4       110.0       109.6       109.1       108.5    
        107.9       107.2       106.4       105.5       104.5       103.4       102.4       101.3       100.2       99.20    
        98.10       97.00       95.93       94.87       93.82       92.79       91.77       90.75       89.75       88.76    
        87.78       86.81       85.84       84.88       83.93       82.98       82.04       81.10       80.17       79.24    
        78.31       77.38       76.46       75.53       74.61       73.69       72.77       71.84       70.92       70.00    
  45  -1000.0     -1000.0     -1000.0     -1000.0     -1000.0       110.4       110.0       109.6       109.1       108.6    
        107.9       107.2       106.4       105.5       104.5       103.5       102.4       101.4       100.3       99.28    
        98.17       97.08       96.01       94.94       93.89       92.86       91.83       90.82       89.82       88.82    
        87.84       86.86       85.90       84.93       83.98       83.03       82.08       81.14       80.20       79.27    
        78.34       77.41       76.48       75.55       74.63       73.70       72.78       71.85       70.93       70.00    
  46  -1000.0     -1000.0     -1000.0     -1000.0     -1000.0     -1000.0       110.0       109.6       109.1       108.6    
        107.9       107.2       106.4       105.6       104.6       103.5       102.5       101.4       100.4       99.34    
        98.24       97.14       96.07       95.00       93.95       92.91       91.89       90.87       89.87       88.87    
        87.89       86.91       85.94       84.97       84.02       83.06       82.12       81.17       80.23       79.30    
        78.36       77.43       76.50       75.57       74.64       73.71       72.78       71.86       70.93       70.00    
  47  -1000.0     -1000.0     -1000.0     -1000.0     -1000.0     -1000.0     -1000.0       109.6       109.1       108.5    
        107.9       107.2       106.5       105.6       104.6       103.6       102.5       101.5       100.4       99.39    
        98.28       97.19       96.11       95.05       94.00       92.96       91.93       90.91       89.91       88.91    
        87.92       86.94       85.97       85.00       84.04       83.09       82.14       81.20       80.25       79.32    
        78.38       77.45       76.51       75.58       74.65       73.72       72.79       71.86       70.93       70.00    
  48  -1000.0     -1000.0     -1000.0     -1000.0     -1000.0     -1000.0     -1000.0     -1000.0       109.0       108.5    
        107.9       107.2       106.5       105.6       104.7       103.6       102.6       101.5       100.5       99.42    
        98.31       97.22       96.14       95.08       94.02       92.98       91.96       90.94       89.93       88.93    
        87.95       86.96       85.99       85.02       84.06       83.11       82.16       81.21       80.27       79.33    
        78.39       77.46       76.52       75.59       74.66       73.73       72.79       71.86       70.93       70.00    
  49  -1000.0     -1000.0     -1000.0     -1000.0     -1000.0     -1000.0     -1000.0     -1000.0     -1000.0       108.5    
        107.9       107.2       106.5       105.6       104.7       103.6       102.6       101.5       100.5       99.44    
        98.33       97.24       96.16       95.09       94.04       93.00       91.97       90.95       89.94       88.95    
        87.96       86.98       86.00       85.03       84.07       83.12       82.17       81.22       80.28       79.34    
        78.40       77.46       76.53       75.59       74.66       73.73       72.80       71.86       70.93       70.00    
  50  -1000.0     -1000.0     -1000.0     -1000.0     -1000.0     -1000.0     -1000.0     -1000.0     -1000.0     -1000.0    
      -1000.0     -1000.0     -1000.0     -1000.0     -1000.0     -1000.0     -1000.0     -1000.0     -1000.0     -1000.0    
      -1000.0     -1000.0     -1000.0     -1000.0     -1000.0     -1000.0     -1000.0     -1000.0     -1000.0     -1000.0    
      -1000.0     -1000.0     -1000.0     -1000.0     -1000.0     -1000.0     -1000.0     -1000.0     -1000.0     -1000.0    
      -1000.0     -1000.0     -1000.0     -1000.0     -1000.0     -1000.0     -1000.0     -1000.0     -1000.0       70.00    

 HEAD WILL BE SAVED ON UNIT   51 AT END OF TIME STEP    1, STRESS PERIOD    1

 DRAWDOWN WILL BE SAVED ON UNIT   52 AT END OF TIME STEP    1, STRESS PERIOD    1
1
  VOLUMETRIC BUDGET FOR ENTIRE MODEL AT END OF TIME STEP    1, STRESS PERIOD   1
  ------------------------------------------------------------------------------

     CUMULATIVE VOLUMES      L**3       RATES FOR THIS TIME STEP      L**3/T
     ------------------                 ------------------------

           IN:                                      IN:
           ---                                      ---
             STORAGE =           0.0000               STORAGE =           0.0000
       CONSTANT HEAD =           0.0000         CONSTANT HEAD =           0.0000
               WELLS =         375.0000                 WELLS =         375.0000
       RIVER LEAKAGE =         485.2544         RIVER LEAKAGE =         485.2544
                  ET =           0.0000                    ET =           0.0000
            RECHARGE =       33199.9961              RECHARGE =       33199.9961

            TOTAL IN =       34060.2500              TOTAL IN =       34060.2500

          OUT:                                     OUT:
          ----                                     ----
             STORAGE =           0.0000               STORAGE =           0.0000
       CONSTANT HEAD =       15629.3242         CONSTANT HEAD =       15629.3242
               WELLS =        3000.0000                 WELLS =        3000.0000
       RIVER LEAKAGE =       14697.2891         RIVER LEAKAGE =       14697.2891
                  ET =         733.5958                    ET =         733.5958
            RECHARGE =           0.0000              RECHARGE =           0.0000

           TOTAL OUT =       34060.2109             TOTAL OUT =       34060.2109

            IN - OUT =       3.9062E-02              IN - OUT =       3.9062E-02

 PERCENT DISCREPANCY =           0.00     PERCENT DISCREPANCY =           0.00






         TIME SUMMARY AT END OF TIME STEP    1 IN STRESS PERIOD    1
                    SECONDS     MINUTES      HOURS       DAYS        YEARS
                    -----------------------------------------------------------
   TIME STEP LENGTH  86400.      1440.0      24.000      1.0000     2.73785E-03
 STRESS PERIOD TIME  86400.      1440.0      24.000      1.0000     2.73785E-03
         TOTAL TIME  86400.      1440.0      24.000      1.0000     2.73785E-03
1

 Run end date and time (yyyy/mm/dd hh:mm:ss): 2026/02/25 16:24:47
 Elapsed run time: 14.210 Seconds

