                                  MODFLOW-2005     
      U.S. GEOLOGICAL SURVEY MODULAR FINITE-DIFFERENCE GROUND-WATER FLOW MODEL
                            VERSION 1.12.00 2/3/2017

 LIST FILE: static_ensemble_3111331.list
                         UNIT    2

 OPENING static_ensemble_3111331.dis
 FILE TYPE:DIS   UNIT   11   STATUS:OLD    
 FORMAT:FORMATTED              ACCESS:SEQUENTIAL          

 OPENING static_ensemble_3111331.bas
 FILE TYPE:BAS6   UNIT   13   STATUS:OLD    
 FORMAT:FORMATTED              ACCESS:SEQUENTIAL          

 OPENING static_ensemble_3111331.lpf
 FILE TYPE:LPF   UNIT   15   STATUS:OLD    
 FORMAT:FORMATTED              ACCESS:SEQUENTIAL          

 OPENING static_ensemble_3111331.evt
 FILE TYPE:EVT   UNIT   22   STATUS:OLD    
 FORMAT:FORMATTED              ACCESS:SEQUENTIAL          

 OPENING static_ensemble_3111331.rch
 FILE TYPE:RCH   UNIT   19   STATUS:OLD    
 FORMAT:FORMATTED              ACCESS:SEQUENTIAL          

 OPENING static_ensemble_3111331.riv
 FILE TYPE:RIV   UNIT   18   STATUS:OLD    
 FORMAT:FORMATTED              ACCESS:SEQUENTIAL          

 OPENING static_ensemble_3111331.wel
 FILE TYPE:WEL   UNIT   20   STATUS:OLD    
 FORMAT:FORMATTED              ACCESS:SEQUENTIAL          

 OPENING static_ensemble_3111331.oc
 FILE TYPE:OC   UNIT   14   STATUS:OLD    
 FORMAT:FORMATTED              ACCESS:SEQUENTIAL          

 OPENING static_ensemble_3111331.pcg
 FILE TYPE:PCG   UNIT   27   STATUS:OLD    
 FORMAT:FORMATTED              ACCESS:SEQUENTIAL          

 OPENING static_ensemble_3111331.cbc
 FILE TYPE:DATA(BINARY)   UNIT   53   STATUS:REPLACE
 FORMAT:UNFORMATTED            ACCESS:STREAM              

 OPENING static_ensemble_3111331.hds
 FILE TYPE:DATA(BINARY)   UNIT   51   STATUS:REPLACE
 FORMAT:UNFORMATTED            ACCESS:STREAM              

 OPENING static_ensemble_3111331.ddn
 FILE TYPE:DATA(BINARY)   UNIT   52   STATUS:REPLACE
 FORMAT:UNFORMATTED            ACCESS:STREAM              

 BAS -- BASIC PACKAGE, VERSION 7, 5/2/2005 INPUT READ FROM UNIT   13
 
 MODFLOW was compiled using mixed precision
 Precision of REAL variables:           6
 Precision of DOUBLE PRECISION variables:          15

 DISCRETIZATION INPUT DATA READ FROM UNIT   11
 # DIS package for MODFLOW-2005 generated by Flopy 3.9.5
    3 LAYERS        50 ROWS        50 COLUMNS
    1 STRESS PERIOD(S) IN SIMULATION
 MODEL TIME UNIT IS DAYS
 MODEL LENGTH UNIT IS METERS
  Confining bed flag for each layer:
   0   0   0

                     DELR =   1000.00    

                     DELC =   1000.00    



           TOP ELEVATION OF LAYER 1
 READING ON UNIT   11 WITH FORMAT: (50E15.6)           



             MODEL LAYER BOTTOM EL. FOR LAYER   1
 READING ON UNIT   11 WITH FORMAT: (50E15.6)           



             MODEL LAYER BOTTOM EL. FOR LAYER   2
 READING ON UNIT   11 WITH FORMAT: (50E15.6)           



             MODEL LAYER BOTTOM EL. FOR LAYER   3
 READING ON UNIT   11 WITH FORMAT: (50E15.6)           


 STRESS PERIOD     LENGTH       TIME STEPS     MULTIPLIER FOR DELT    SS FLAG
 ----------------------------------------------------------------------------
        1         1.000000          1                    1.000         SS

 STEADY-STATE SIMULATION



 
 # BAS6 package for MODFLOW-2005 generated by Flopy 3.9.5                        
 THE FREE FORMAT OPTION HAS BEEN SELECTED



                     BOUNDARY ARRAY FOR LAYER   1
 READING ON UNIT   13 WITH FORMAT: (50I10)             



                     BOUNDARY ARRAY FOR LAYER   2
 READING ON UNIT   13 WITH FORMAT: (50I10)             



                     BOUNDARY ARRAY FOR LAYER   3
 READING ON UNIT   13 WITH FORMAT: (50I10)             

 AQUIFER HEAD WILL BE SET TO  -999.99     AT ALL NO-FLOW NODES (IBOUND=0).



                       INITIAL HEAD FOR LAYER   1
 READING ON UNIT   13 WITH FORMAT: (50E15.6)           



                       INITIAL HEAD FOR LAYER   2
 READING ON UNIT   13 WITH FORMAT: (50E15.6)           



                       INITIAL HEAD FOR LAYER   3
 READING ON UNIT   13 WITH FORMAT: (50E15.6)           
 # OC package for MODFLOW-2005 generated by Flopy 3.9.5

 OUTPUT CONTROL IS SPECIFIED ONLY AT TIME STEPS FOR WHICH OUTPUT IS DESIRED
 COMPACT CELL-BY-CELL BUDGET FILES WILL BE WRITTEN
 AUXILIARY DATA WILL BE SAVED IN CELL-BY-CELL BUDGET FILES
 HEAD PRINT FORMAT CODE IS   0    DRAWDOWN PRINT FORMAT CODE IS   0
 HEADS WILL BE SAVED ON UNIT   51    DRAWDOWNS WILL BE SAVED ON UNIT   52

 LPF -- LAYER-PROPERTY FLOW PACKAGE, VERSION 7, 5/2/2005
         INPUT READ FROM UNIT   15
 # LPF package for MODFLOW-2005 generated by Flopy 3.9.5
 CELL-BY-CELL FLOWS WILL BE SAVED ON UNIT   53
 HEAD AT CELLS THAT CONVERT TO DRY= -1.00000E+30
 No named parameters
 STORAGECOEFFICIENT OPTION:
 Read storage coefficient rather than specific storage

   LAYER FLAGS:
 LAYER       LAYTYP        LAYAVG         CHANI        LAYVKA        LAYWET
 ---------------------------------------------------------------------------
    1             1             0     1.000E+00             0             0
    2             1             0     1.000E+00             0             0
    3             1             0     1.000E+00             0             0

   INTERPRETATION OF LAYER FLAGS:
                        INTERBLOCK     HORIZONTAL    DATA IN
         LAYER TYPE   TRANSMISSIVITY   ANISOTROPY   ARRAY VKA   WETTABILITY
 LAYER      (LAYTYP)      (LAYAVG)       (CHANI)      (LAYVKA)      (LAYWET)
 ---------------------------------------------------------------------------
    1   CONVERTIBLE      HARMONIC     1.000E+00    VERTICAL K  NON-WETTABLE
    2   CONVERTIBLE      HARMONIC     1.000E+00    VERTICAL K  NON-WETTABLE
    3   CONVERTIBLE      HARMONIC     1.000E+00    VERTICAL K  NON-WETTABLE

 WETTING CAPABILITY IS NOT ACTIVE IN ANY LAYER



              HYD. COND. ALONG ROWS FOR LAYER   1
 READING ON UNIT   15 WITH FORMAT: (50E15.6)           



                VERTICAL HYD. COND. FOR LAYER   1
 READING ON UNIT   15 WITH FORMAT: (50E15.6)           



              HYD. COND. ALONG ROWS FOR LAYER   2
 READING ON UNIT   15 WITH FORMAT: (50E15.6)           



                VERTICAL HYD. COND. FOR LAYER   2
 READING ON UNIT   15 WITH FORMAT: (50E15.6)           



              HYD. COND. ALONG ROWS FOR LAYER   3
 READING ON UNIT   15 WITH FORMAT: (50E15.6)           



                VERTICAL HYD. COND. FOR LAYER   3
 READING ON UNIT   15 WITH FORMAT: (50E15.6)           

 WEL -- WELL PACKAGE, VERSION 7, 5/2/2005 INPUT READ FROM UNIT   20
 # WEL package for MODFLOW-2005 generated by Flopy 3.9.5
 No named parameters
 MAXIMUM OF      3 ACTIVE WELLS AT ONE TIME


     0 Well parameters

 RIV -- RIVER PACKAGE, VERSION 7, 5/2/2005 INPUT READ FROM UNIT   18
 # RIV package for MODFLOW-2005 generated by Flopy 3.9.5
 No named parameters
 MAXIMUM OF     49 ACTIVE RIVER REACHES AT ONE TIME
 CELL-BY-CELL FLOWS WILL BE SAVED ON UNIT   53


     0 River parameters

 EVT -- EVAPOTRANSPIRATION PACKAGE, VERSION 7, 5/2/2005
         INPUT READ FROM UNIT   22
 # EVT package for MODFLOW-2005 generated by Flopy 3.9.5
 No named parameters
 OPTION 3 -- EVAPOTRANSPIRATION FROM HIGHEST ACTIVE NODE IN EACH VERTICAL COLUMN
 CELL-BY-CELL FLOWS WILL BE SAVED ON UNIT   53


     0 Evapotranspiration parameters

 RCH -- RECHARGE PACKAGE, VERSION 7, 5/2/2005 INPUT READ FROM UNIT   19
 # RCH package for MODFLOW-2005 generated by Flopy 3.9.5
 No named parameters
 OPTION 3 -- RECHARGE TO HIGHEST ACTIVE NODE IN EACH VERTICAL COLUMN
 CELL-BY-CELL FLOWS WILL BE SAVED ON UNIT   53


     0 Recharge parameters

 PCG -- CONJUGATE-GRADIENT SOLUTION PACKAGE, VERSION 7, 5/2/2005
 # PCG package for MODFLOW-2005 generated by Flopy 3.9.5
 MAXIMUM OF   5000 CALLS OF SOLUTION ROUTINE
 MAXIMUM OF    500 INTERNAL ITERATIONS PER CALL TO SOLUTION ROUTINE
 MATRIX PRECONDITIONING TYPE :    1



                                    SOLUTION BY THE CONJUGATE-GRADIENT METHOD
                                   -------------------------------------------
                    MAXIMUM NUMBER OF CALLS TO PCG ROUTINE =     5000
                        MAXIMUM ITERATIONS PER CALL TO PCG =      500
                               MATRIX PRECONDITIONING TYPE =        1
        RELAXATION FACTOR (ONLY USED WITH PRECOND. TYPE 1) =    0.97000E+00
 PARAMETER OF POLYNOMIAL PRECOND. = 2 (2) OR IS CALCULATED :        0
                         HEAD CHANGE CRITERION FOR CLOSURE =    0.10000E-04
                     RESIDUAL CHANGE CRITERION FOR CLOSURE =    0.10000E-04
            PCG HEAD AND RESIDUAL CHANGE PRINTOUT INTERVAL =      999
     PRINTING FROM SOLVER IS LIMITED(1) OR SUPPRESSED (>1) =        3
                            STEADY-STATE DAMPING PARAMETER =    0.10000E-01
                               TRANSIENT DAMPING PARAMETER =    0.10000E-01
1
                            STRESS PERIOD NO.    1, LENGTH =   1.000000    
                            -----------------------------------------------

                              NUMBER OF TIME STEPS =     1

                               MULTIPLIER FOR DELT =     1.000

                            INITIAL TIME STEP SIZE =   1.000000    

 WELL NO.  LAYER   ROW   COL   STRESS RATE         
 --------------------------------------------------
      1      3     22     39      -1500.    
      2      1     13     15      -1500.    
      3      1     25     26       375.0    

      3 WELLS

 REACH NO.  LAYER   ROW   COL     STAGE      CONDUCTANCE     BOTTOM EL.         
 -------------------------------------------------------------------------------
      1      1     25      2       100.5           1000.           98.00    
      2      1     25      3       99.50           1000.           97.00    
      3      1     25      4       98.50           1000.           96.00    
      4      1     25      5       97.50           1000.           95.00    
      5      1     25      6       96.50           1000.           94.00    
      6      1     25      7       95.50           1000.           93.00    
      7      1     25      8       94.50           1000.           92.00    
      8      1     25      9       93.50           1000.           91.00    
      9      1     25     10       92.50           1000.           90.00    
     10      1     25     11       91.50           1000.           89.00    
     11      1     25     12       90.50           1000.           88.00    
     12      1     25     13       89.50           1000.           87.00    
     13      1     25     14       88.50           1000.           86.00    
     14      1     25     15       87.50           1000.           85.00    
     15      1     25     16       86.50           1000.           84.00    
     16      1     25     17       85.50           1000.           83.00    
     17      1     25     18       84.50           1000.           82.00    
     18      1     25     19       83.50           1000.           81.00    
     19      1     25     20       82.50           1000.           80.00    
     20      1     25     21       81.50           1000.           79.00    
     21      1     25     22       80.50           1000.           78.00    
     22      1     25     23       79.50           1000.           77.00    
     23      1     25     24       78.50           1000.           76.00    
     24      1     25     25       77.50           1000.           75.00    
     25      1     25     26       77.40           1000.           74.90    
     26      1     25     27       77.30           1000.           74.80    
     27      1     25     28       77.20           1000.           74.70    
     28      1     25     29       77.10           1000.           74.60    
     29      1     25     30       77.00           1000.           74.50    
     30      1     25     31       76.90           1000.           74.40    
     31      1     25     32       76.80           1000.           74.30    
     32      1     25     33       76.70           1000.           74.20    
     33      1     25     34       76.60           1000.           74.10    
     34      1     25     35       76.50           1000.           74.00    
     35      1     25     36       76.40           1000.           73.90    
     36      1     25     37       76.30           1000.           73.80    
     37      1     25     38       76.20           1000.           73.70    
     38      1     25     39       76.10           1000.           73.60    
     39      1     25     40       76.00           1000.           73.50    
     40      1     25     41       75.90           1000.           73.40    
     41      1     25     42       75.80           1000.           73.30    
     42      1     25     43       75.70           1000.           73.20    
     43      1     25     44       75.60           1000.           73.10    
     44      1     25     45       75.50           1000.           73.00    
     45      1     25     46       75.40           1000.           72.90    
     46      1     25     47       75.30           1000.           72.80    
     47      1     25     48       75.20           1000.           72.70    
     48      1     25     49       75.10           1000.           72.60    
     49      1     25     50       75.00           1000.           72.50    

     49 RIVER REACHES



                         ET SURFACE
 READING ON UNIT   22 WITH FORMAT: (50E15.6)           



            EVAPOTRANSPIRATION RATE
 READING ON UNIT   22 WITH FORMAT: (50E15.6)           

         EXTINCTION DEPTH =   10.0000    



                           RECHARGE
 READING ON UNIT   19 WITH FORMAT: (50E15.6)           
 
 SOLVING FOR HEAD 

 OUTPUT CONTROL FOR STRESS PERIOD    1   TIME STEP    1
    SAVE HEAD FOR ALL LAYERS
    SAVE DRAWDOWN FOR ALL LAYERS
    SAVE BUDGET
    PRINT HEAD FOR ALL LAYERS
    PRINT BUDGET
 UBDSV2 SAVING "   CONSTANT HEAD" ON UNIT  53 AT TIME STEP  1, STRESS PERIOD   1
 UBDSV1 SAVING "FLOW RIGHT FACE " ON UNIT  53 AT TIME STEP  1, STRESS PERIOD   1
 UBDSV1 SAVING "FLOW FRONT FACE " ON UNIT  53 AT TIME STEP  1, STRESS PERIOD   1
 UBDSV1 SAVING "FLOW LOWER FACE " ON UNIT  53 AT TIME STEP  1, STRESS PERIOD   1
 UBDSV4 SAVING "   RIVER LEAKAGE" ON UNIT  53 AT TIME STEP  1, STRESS PERIOD   1
 UBDSV3 SAVING "              ET" ON UNIT  53 AT TIME STEP  1, STRESS PERIOD   1
 UBDSV3 SAVING "        RECHARGE" ON UNIT  53 AT TIME STEP  1, STRESS PERIOD   1
1
              HEAD IN LAYER   1 AT END OF TIME STEP   1 IN STRESS PERIOD    1
  ---------------------------------------------------------------------------

            1           2           3           4           5           6           7           8           9          10
           11          12          13          14          15          16          17          18          19          20
           21          22          23          24          25          26          27          28          29          30
           31          32          33          34          35          36          37          38          39          40
           41          42          43          44          45          46          47          48          49          50
 ........................................................................................................................
   1  -1000.0     -1000.0     -1000.0     -1000.0     -1000.0     -1000.0     -1000.0     -1000.0     -1000.0     -1000.0    
      -1000.0     -1000.0     -1000.0     -1000.0     -1000.0     -1000.0     -1000.0     -1000.0     -1000.0     -1000.0    
      -1000.0     -1000.0     -1000.0     -1000.0     -1000.0     -1000.0     -1000.0     -1000.0     -1000.0     -1000.0    
      -1000.0     -1000.0     -1000.0     -1000.0     -1000.0     -1000.0     -1000.0     -1000.0     -1000.0     -1000.0    
      -1000.0     -1000.0     -1000.0     -1000.0     -1000.0     -1000.0     -1000.0     -1000.0     -1000.0       70.00    
   2  -1000.0     -1000.0     -1000.0     -1000.0     -1000.0       75.93       75.90       75.85       75.80       75.74    
        75.69       75.63       75.55       75.47       75.39       75.29       75.20       75.09       74.98       74.87    
        74.76       74.64       74.52       74.40       74.27       74.14       74.00       73.86       73.72       73.57    
        73.42       73.26       73.10       72.94       72.78       72.61       72.44       72.27       72.09       71.91    
        71.73       71.55       71.36       71.18       70.98       70.79       70.60       70.40       70.20       70.00    
   3  -1000.0     -1000.0     -1000.0     -1000.0       75.99       75.95       75.91       75.86       75.80       75.75    
        75.70       75.63       75.56       75.48       75.39       75.30       75.20       75.10       74.99       74.87    
        74.76       74.65       74.53       74.40       74.27       74.14       74.00       73.86       73.72       73.57    
        73.42       73.27       73.11       72.95       72.78       72.62       72.44       72.27       72.10       71.92    
        71.74       71.55       71.37       71.18       70.99       70.79       70.60       70.40       70.20       70.00    
   4  -1000.0     -1000.0     -1000.0       76.06       76.02       75.98       75.93       75.88       75.83       75.78    
        75.72       75.65       75.57       75.49       75.40       75.31       75.21       75.11       75.00       74.88    
        74.77       74.66       74.53       74.41       74.28       74.15       74.01       73.87       73.73       73.58    
        73.43       73.27       73.11       72.95       72.79       72.62       72.45       72.28       72.10       71.92    
        71.74       71.56       71.37       71.18       70.99       70.79       70.60       70.40       70.20       70.00    
   5  -1000.0     -1000.0       76.13       76.09       76.05       76.01       75.96       75.91       75.86       75.80    
        75.74       75.67       75.59       75.51       75.42       75.32       75.22       75.12       75.01       74.90    
        74.78       74.67       74.55       74.42       74.29       74.16       74.02       73.88       73.74       73.59    
        73.44       73.28       73.12       72.96       72.80       72.63       72.46       72.28       72.11       71.93    
        71.75       71.56       71.37       71.18       70.99       70.80       70.60       70.40       70.20       70.00    
   6  -1000.0       76.18       76.16       76.12       76.09       76.04       76.00       75.95       75.89       75.83    
        75.77       75.69       75.62       75.53       75.44       75.34       75.24       75.14       75.03       74.91    
        74.80       74.68       74.56       74.44       74.31       74.17       74.04       73.90       73.75       73.60    
        73.45       73.29       73.14       72.97       72.81       72.64       72.47       72.30       72.12       71.94    
        71.76       71.57       71.38       71.19       71.00       70.80       70.60       70.41       70.20       70.00    
   7  -1000.0       76.21       76.19       76.16       76.13       76.08       76.04       75.99       75.93       75.87    
        75.80       75.73       75.65       75.56       75.47       75.37       75.27       75.16       75.05       74.93    
        74.82       74.70       74.58       74.46       74.33       74.19       74.06       73.91       73.77       73.62    
        73.47       73.31       73.15       72.99       72.82       72.65       72.48       72.31       72.13       71.95    
        71.77       71.58       71.39       71.20       71.01       70.81       70.61       70.41       70.21       70.00    
   8  -1000.0       76.24       76.23       76.20       76.17       76.13       76.08       76.03       75.97       75.91    
        75.84       75.76       75.68       75.59       75.50       75.40       75.30       75.19       75.08       74.96    
        74.85       74.73       74.61       74.48       74.35       74.22       74.08       73.94       73.79       73.64    
        73.49       73.33       73.17       73.01       72.84       72.67       72.50       72.32       72.15       71.97    
        71.78       71.59       71.40       71.21       71.01       70.82       70.62       70.41       70.21       70.00    
   9  -1000.0       76.29       76.28       76.25       76.21       76.17       76.13       76.07       76.02       75.95    
        75.88       75.80       75.72       75.63       75.53       75.43       75.33       75.22       75.11       74.99    
        74.88       74.76       74.64       74.51       74.38       74.24       74.10       73.96       73.81       73.66    
        73.51       73.35       73.19       73.03       72.86       72.69       72.52       72.34       72.17       71.98    
        71.80       71.61       71.42       71.22       71.03       70.82       70.62       70.42       70.21       70.00    
  10  -1000.0       76.34       76.32       76.30       76.26       76.22       76.18       76.12       76.07       76.00    
        75.93       75.85       75.76       75.66       75.57       75.47       75.36       75.26       75.14       75.02    
        74.91       74.79       74.67       74.54       74.41       74.27       74.13       73.99       73.84       73.69    
        73.54       73.38       73.22       73.05       72.89       72.72       72.54       72.37       72.19       72.00    
        71.82       71.63       71.43       71.24       71.04       70.84       70.63       70.42       70.21       70.00    
  11  -1000.0       76.38       76.37       76.35       76.32       76.28       76.23       76.18       76.12       76.05    
        75.98       75.90       75.80       75.71       75.61       75.51       75.40       75.30       75.18       75.06    
        74.95       74.83       74.71       74.58       74.45       74.31       74.17       74.02       73.87       73.72    
        73.57       73.41       73.25       73.08       72.92       72.74       72.57       72.39       72.21       72.03    
        71.84       71.65       71.45       71.25       71.05       70.85       70.64       70.43       70.22       70.00    
  12  -1000.0       76.44       76.43       76.41       76.38       76.34       76.30       76.24       76.18       76.11    
        76.04       75.95       75.86       75.75       75.64       75.55       75.45       75.34       75.23       75.11    
        74.99       74.88       74.75       74.62       74.49       74.35       74.20       74.06       73.91       73.76    
        73.60       73.44       73.28       73.11       72.95       72.78       72.60       72.42       72.24       72.06    
        71.87       71.67       71.48       71.28       71.07       70.86       70.65       70.44       70.22       70.00    
  13  -1000.0       76.50       76.49       76.48       76.45       76.41       76.37       76.31       76.25       76.18    
        76.10       76.02       75.92       75.80       75.65       75.59       75.50       75.40       75.28       75.16    
        75.04       74.92       74.80       74.67       74.53       74.39       74.25       74.10       73.95       73.79    
        73.64       73.48       73.32       73.15       72.98       72.81       72.63       72.46       72.27       72.09    
        71.90       71.70       71.50       71.30       71.09       70.88       70.66       70.45       70.22       70.00    
  14  -1000.0       76.58       76.57       76.55       76.52       76.49       76.44       76.39       76.33       76.26    
        76.18       76.09       75.99       75.88       75.77       75.67       75.57       75.46       75.34       75.22    
        75.10       74.98       74.85       74.72       74.58       74.44       74.29       74.14       73.99       73.84    
        73.68       73.52       73.36       73.19       73.02       72.85       72.67       72.49       72.31       72.12    
        71.93       71.73       71.53       71.33       71.12       70.90       70.68       70.46       70.23       70.00    
  15  -1000.0       76.66       76.65       76.63       76.60       76.57       76.52       76.47       76.41       76.34    
        76.26       76.17       76.08       75.97       75.86       75.76       75.65       75.53       75.41       75.28    
        75.16       75.04       74.91       74.77       74.63       74.49       74.34       74.19       74.04       73.88    
        73.72       73.56       73.40       73.23       73.06       72.89       72.72       72.54       72.35       72.16    
        71.97       71.77       71.57       71.36       71.14       70.92       70.70       70.47       70.24       70.00    
  16  -1000.0       76.75       76.74       76.72       76.69       76.66       76.61       76.56       76.50       76.43    
        76.35       76.26       76.17       76.07       75.96       75.85       75.73       75.61       75.48       75.35    
        75.23       75.10       74.97       74.83       74.69       74.54       74.39       74.24       74.08       73.93    
        73.77       73.61       73.45       73.28       73.11       72.94       72.76       72.58       72.40       72.21    
        72.02       71.82       71.61       71.40       71.18       70.95       70.72       70.49       70.24       70.00    
  17  -1000.0       76.84       76.84       76.82       76.79       76.76       76.71       76.66       76.60       76.53    
        76.45       76.36       76.26       76.16       76.05       75.94       75.82       75.69       75.56       75.42    
        75.30       75.17       75.03       74.89       74.75       74.60       74.45       74.29       74.14       73.98    
        73.82       73.66       73.50       73.33       73.16       72.99       72.82       72.64       72.45       72.27    
        72.07       71.87       71.66       71.44       71.22       70.99       70.75       70.50       70.25       70.00    
  18  -1000.0       76.95       76.94       76.92       76.90       76.86       76.82       76.76       76.70       76.63    
        76.55       76.46       76.37       76.26       76.15       76.03       75.91       75.78       75.64       75.50    
        75.37       75.24       75.11       74.96       74.81       74.66       74.50       74.35       74.19       74.03    
        73.87       73.71       73.55       73.39       73.22       73.05       72.88       72.70       72.52       72.33    
        72.13       71.93       71.72       71.50       71.27       71.03       70.78       70.53       70.27       70.00    
  19  -1000.0       77.06       77.05       77.03       77.01       76.97       76.93       76.87       76.81       76.74    
        76.66       76.57       76.48       76.37       76.26       76.14       76.01       75.88       75.73       75.58    
        75.46       75.32       75.18       75.04       74.88       74.72       74.56       74.41       74.25       74.09    
        73.93       73.77       73.61       73.45       73.28       73.12       72.94       72.77       72.58       72.40    
        72.20       72.00       71.78       71.56       71.32       71.08       70.82       70.56       70.28       70.00    
  20  -1000.0       77.18       77.17       77.15       77.13       77.09       77.05       76.99       76.93       76.86    
        76.78       76.69       76.59       76.48       76.37       76.25       76.11       75.98       75.83       75.68    
        75.55       75.41       75.27       75.12       74.96       74.79       74.63       74.47       74.31       74.15    
        74.00       73.84       73.68       73.52       73.36       73.19       73.02       72.85       72.67       72.48    
        72.28       72.08       71.86       71.63       71.39       71.14       70.87       70.59       70.30       70.00    
  21  -1000.0       77.31       77.30       77.28       77.25       77.22       77.17       77.12       77.06       76.98    
        76.90       76.81       76.71       76.60       76.49       76.36       76.23       76.09       75.94       75.78    
        75.65       75.51       75.36       75.21       75.04       74.87       74.71       74.54       74.39       74.23    
        74.07       73.92       73.76       73.60       73.44       73.28       73.11       72.94       72.76       72.58    
        72.38       72.18       71.96       71.73       71.48       71.22       70.94       70.64       70.32       70.00    
  22  -1000.0       77.44       77.43       77.41       77.39       77.35       77.31       77.25       77.19       77.12    
        77.03       76.94       76.84       76.73       76.61       76.48       76.34       76.20       76.05       75.88    
        75.75       75.62       75.47       75.30       75.13       74.96       74.79       74.63       74.47       74.32    
        74.16       74.01       73.86       73.70       73.55       73.39       73.23       73.06       72.89       72.70    
        72.51       72.31       72.09       71.86       71.60       71.33       71.03       70.70       70.36       70.00    
  23  -1000.0       77.58       77.57       77.56       77.53       77.49       77.45       77.39       77.33       77.26    
        77.17       77.08       76.98       76.87       76.75       76.61       76.47       76.32       76.15       75.98    
        75.88       75.76       75.62       75.45       75.27       75.10       74.93       74.77       74.61       74.45    
        74.30       74.15       74.01       73.86       73.71       73.55       73.40       73.24       73.07       72.89    
        72.70       72.50       72.28       72.04       71.78       71.50       71.18       70.83       70.43       70.00    
  24  -1000.0       77.73       77.72       77.70       77.68       77.64       77.60       77.54       77.48       77.41    
        77.32       77.23       77.13       77.01       76.89       76.75       76.60       76.44       76.27       76.09    
        76.06       75.97       75.84       75.67       75.47       75.30       75.12       74.96       74.80       74.65    
        74.51       74.36       74.22       74.08       73.93       73.79       73.64       73.48       73.32       73.15    
        72.96       72.76       72.55       72.31       72.05       71.76       71.43       71.04       70.57       70.00    
  25  -1000.0       77.89       77.88       77.86       77.83       77.80       77.75       77.70       77.64       77.56    
        77.48       77.39       77.28       77.17       77.04       76.90       76.75       76.59       76.41       76.23    
        76.34       76.28       76.15       75.97       75.73       75.57       75.38       75.22       75.07       74.93    
        74.79       74.65       74.51       74.38       74.24       74.10       73.96       73.81       73.66       73.50    
        73.32       73.12       72.91       72.68       72.42       72.13       71.79       71.39       70.85       70.00    
  26  -1000.0       77.73       77.72       77.70       77.68       77.64       77.60       77.54       77.48       77.40    
        77.32       77.23       77.12       77.01       76.88       76.74       76.59       76.42       76.25       76.07    
        76.02       75.93       75.79       75.62       75.42       75.24       75.06       74.90       74.74       74.59    
        74.45       74.30       74.16       74.02       73.87       73.72       73.57       73.42       73.26       73.09    
        72.90       72.70       72.49       72.25       72.00       71.71       71.38       71.00       70.54       70.00    
  27  -1000.0       77.58       77.57       77.55       77.53       77.49       77.45       77.39       77.33       77.25    
        77.17       77.08       76.97       76.86       76.73       76.59       76.44       76.28       76.11       75.93    
        75.82       75.69       75.54       75.37       75.19       75.01       74.83       74.67       74.51       74.35    
        74.20       74.05       73.90       73.75       73.60       73.45       73.29       73.13       72.96       72.78    
        72.60       72.39       72.18       71.95       71.69       71.41       71.11       70.77       70.39       70.00    
  28  -1000.0       77.44       77.43       77.41       77.38       77.35       77.30       77.25       77.19       77.11    
        77.03       76.94       76.84       76.72       76.60       76.46       76.31       76.16       75.99       75.82    
        75.68       75.54       75.38       75.21       75.03       74.85       74.68       74.51       74.35       74.19    
        74.03       73.88       73.72       73.57       73.41       73.25       73.09       72.93       72.75       72.57    
        72.38       72.18       71.97       71.74       71.49       71.23       70.94       70.63       70.31       70.00    
  29  -1000.0       77.30       77.29       77.27       77.25       77.21       77.17       77.11       77.05       76.98    
        76.90       76.81       76.71       76.59       76.47       76.34       76.20       76.05       75.89       75.72    
        75.58       75.44       75.28       75.11       74.94       74.76       74.59       74.42       74.25       74.09    
        73.93       73.77       73.62       73.46       73.30       73.14       72.97       72.80       72.62       72.44    
        72.25       72.05       71.84       71.61       71.37       71.12       70.85       70.57       70.28       70.00    
  30  -1000.0       77.17       77.16       77.15       77.12       77.09       77.04       76.99       76.93       76.85    
        76.77       76.68       76.58       76.47       76.36       76.23       76.09       75.94       75.79       75.63    
        75.49       75.35       75.19       75.03       74.86       74.68       74.51       74.34       74.18       74.01    
        73.85       73.69       73.53       73.37       73.21       73.04       72.87       72.70       72.52       72.34    
        72.15       71.95       71.74       71.52       71.28       71.04       70.79       70.53       70.26       70.00    
  31  -1000.0       77.05       77.04       77.03       77.00       76.97       76.92       76.87       76.81       76.74    
        76.66       76.57       76.47       76.36       76.25       76.12       75.99       75.85       75.70       75.55    
        75.41       75.26       75.11       74.95       74.79       74.61       74.44       74.28       74.11       73.95    
        73.79       73.63       73.46       73.30       73.14       72.97       72.80       72.62       72.44       72.26    
        72.07       71.87       71.66       71.45       71.22       70.99       70.75       70.50       70.25       70.00    
  32  -1000.0       76.94       76.93       76.91       76.89       76.85       76.81       76.76       76.70       76.63    
        76.55       76.46       76.36       76.26       76.15       76.02       75.89       75.76       75.61       75.47    
        75.33       75.19       75.04       74.88       74.72       74.55       74.39       74.22       74.06       73.90    
        73.73       73.57       73.41       73.24       73.08       72.91       72.74       72.56       72.38       72.20    
        72.01       71.81       71.60       71.39       71.17       70.95       70.72       70.48       70.24       70.00    
  33  -1000.0       76.83       76.82       76.81       76.78       76.75       76.70       76.65       76.59       76.52    
        76.45       76.36       76.27       76.16       76.05       75.93       75.81       75.67       75.54       75.39    
        75.26       75.12       74.97       74.82       74.66       74.50       74.34       74.17       74.01       73.85    
        73.69       73.53       73.36       73.20       73.03       72.86       72.69       72.51       72.33       72.15    
        71.96       71.76       71.56       71.35       71.14       70.92       70.70       70.47       70.23       70.00    
  34  -1000.0       76.73       76.73       76.71       76.68       76.65       76.61       76.55       76.49       76.43    
        76.35       76.27       76.17       76.07       75.97       75.85       75.73       75.60       75.46       75.32    
        75.19       75.05       74.91       74.76       74.61       74.45       74.29       74.13       73.97       73.81    
        73.65       73.49       73.32       73.16       72.99       72.82       72.65       72.47       72.29       72.10    
        71.92       71.72       71.52       71.32       71.11       70.89       70.68       70.45       70.23       70.00    
  35  -1000.0       76.64       76.63       76.62       76.59       76.56       76.51       76.46       76.40       76.34    
        76.26       76.18       76.09       75.99       75.88       75.77       75.65       75.52       75.39       75.26    
        75.13       74.99       74.85       74.71       74.56       74.40       74.25       74.09       73.93       73.78    
        73.61       73.45       73.29       73.12       72.95       72.78       72.61       72.43       72.25       72.07    
        71.88       71.69       71.49       71.29       71.08       70.87       70.66       70.44       70.22       70.00    
  36  -1000.0       76.56       76.55       76.53       76.51       76.47       76.43       76.38       76.32       76.26    
        76.18       76.10       76.01       75.91       75.81       75.70       75.58       75.46       75.33       75.20    
        75.07       74.94       74.80       74.66       74.51       74.36       74.21       74.05       73.90       73.74    
        73.58       73.42       73.25       73.09       72.92       72.75       72.58       72.40       72.22       72.04    
        71.85       71.66       71.46       71.26       71.06       70.85       70.65       70.43       70.22       70.00    
  37  -1000.0       76.48       76.47       76.45       76.43       76.39       76.35       76.30       76.24       76.18    
        76.11       76.03       75.94       75.84       75.74       75.63       75.52       75.40       75.27       75.14    
        75.01       74.88       74.75       74.61       74.47       74.32       74.17       74.02       73.86       73.71    
        73.55       73.39       73.22       73.06       72.89       72.72       72.54       72.37       72.19       72.01    
        71.82       71.63       71.44       71.24       71.04       70.84       70.63       70.42       70.21       70.00    
  38  -1000.0       76.41       76.40       76.38       76.36       76.32       76.28       76.23       76.17       76.11    
        76.04       75.96       75.87       75.78       75.68       75.57       75.46       75.34       75.22       75.09    
        74.97       74.84       74.70       74.57       74.42       74.28       74.13       73.98       73.83       73.67    
        73.52       73.35       73.19       73.03       72.86       72.69       72.52       72.34       72.16       71.98    
        71.80       71.61       71.42       71.22       71.03       70.83       70.62       70.42       70.21       70.00    
  39  -1000.0       76.35       76.34       76.32       76.29       76.26       76.21       76.16       76.11       76.04    
        75.97       75.90       75.81       75.72       75.62       75.52       75.40       75.29       75.17       75.04    
        74.92       74.79       74.66       74.53       74.39       74.24       74.10       73.95       73.80       73.64    
        73.49       73.33       73.16       73.00       72.83       72.66       72.49       72.32       72.14       71.96    
        71.78       71.59       71.40       71.21       71.01       70.81       70.61       70.41       70.21       70.00    
  40  -1000.0       76.30       76.28       76.26       76.23       76.20       76.15       76.10       76.05       75.99    
        75.92       75.84       75.76       75.66       75.57       75.46       75.36       75.24       75.12       75.00    
        74.88       74.75       74.62       74.49       74.35       74.21       74.07       73.92       73.77       73.62    
        73.46       73.30       73.14       72.98       72.81       72.64       72.47       72.30       72.12       71.94    
        71.76       71.57       71.38       71.19       71.00       70.80       70.61       70.41       70.20       70.00    
  41  -1000.0       76.26       76.24       76.21       76.18       76.14       76.10       76.05       75.99       75.93    
        75.86       75.79       75.70       75.62       75.52       75.42       75.31       75.20       75.08       74.96    
        74.84       74.72       74.59       74.46       74.32       74.18       74.04       73.89       73.74       73.59    
        73.44       73.28       73.12       72.95       72.79       72.62       72.45       72.28       72.10       71.92    
        71.74       71.56       71.37       71.18       70.99       70.80       70.60       70.40       70.20       70.00    
  42  -1000.0       76.21       76.19       76.17       76.13       76.09       76.05       76.00       75.94       75.88    
        75.82       75.74       75.66       75.57       75.48       75.38       75.27       75.16       75.05       74.93    
        74.81       74.69       74.56       74.43       74.29       74.16       74.01       73.87       73.72       73.57    
        73.41       73.26       73.10       72.94       72.77       72.60       72.43       72.26       72.08       71.91    
        71.73       71.54       71.36       71.17       70.98       70.79       70.59       70.40       70.20       70.00    
  43  -1000.0       76.16       76.15       76.13       76.09       76.05       76.01       75.96       75.90       75.84    
        75.77       75.70       75.62       75.53       75.44       75.34       75.24       75.13       75.02       74.90    
        74.78       74.66       74.53       74.40       74.27       74.13       73.99       73.85       73.70       73.55    
        73.40       73.24       73.08       72.92       72.75       72.59       72.42       72.25       72.07       71.89    
        71.71       71.53       71.35       71.16       70.97       70.78       70.59       70.39       70.20       70.00    
  44  -1000.0       76.13       76.11       76.08       76.05       76.01       75.96       75.91       75.86       75.80    
        75.73       75.66       75.58       75.50       75.41       75.31       75.21       75.10       74.99       74.87    
        74.76       74.63       74.51       74.38       74.25       74.11       73.97       73.83       73.68       73.53    
        73.38       73.22       73.07       72.90       72.74       72.57       72.40       72.23       72.06       71.88    
        71.70       71.52       71.34       71.15       70.97       70.78       70.59       70.39       70.20       70.00    
  45  -1000.0       76.11       76.08       76.05       76.01       75.97       75.93       75.88       75.82       75.77    
        75.70       75.63       75.55       75.47       75.38       75.29       75.18       75.08       74.97       74.85    
        74.73       74.61       74.49       74.36       74.23       74.10       73.96       73.81       73.67       73.52    
        73.37       73.21       73.05       72.89       72.73       72.56       72.39       72.22       72.05       71.87    
        71.70       71.52       71.33       71.15       70.96       70.77       70.58       70.39       70.20       70.00    
  46  -1000.0     -1000.0       76.05       76.02       75.98       75.94       75.89       75.84       75.79       75.74    
        75.67       75.61       75.53       75.45       75.36       75.26       75.16       75.06       74.95       74.83    
        74.72       74.60       74.48       74.35       74.22       74.08       73.94       73.80       73.66       73.51    
        73.36       73.20       73.04       72.88       72.72       72.55       72.39       72.22       72.04       71.87    
        71.69       71.51       71.33       71.14       70.96       70.77       70.58       70.39       70.19       70.00    
  47  -1000.0     -1000.0     -1000.0       75.98       75.95       75.91       75.86       75.81       75.76       75.71    
        75.65       75.58       75.51       75.43       75.34       75.25       75.15       75.04       74.93       74.82    
        74.71       74.59       74.46       74.34       74.21       74.07       73.93       73.79       73.65       73.50    
        73.35       73.19       73.04       72.88       72.71       72.55       72.38       72.21       72.04       71.86    
        71.68       71.51       71.32       71.14       70.95       70.77       70.58       70.39       70.19       70.00    
  48  -1000.0     -1000.0     -1000.0     -1000.0       75.92       75.88       75.84       75.79       75.74       75.69    
        75.63       75.57       75.50       75.42       75.33       75.24       75.14       75.03       74.92       74.81    
        74.70       74.58       74.46       74.33       74.20       74.07       73.93       73.79       73.64       73.49    
        73.34       73.19       73.03       72.87       72.71       72.54       72.38       72.21       72.03       71.86    
        71.68       71.50       71.32       71.14       70.95       70.77       70.58       70.39       70.19       70.00    
  49  -1000.0     -1000.0     -1000.0     -1000.0     -1000.0       75.86       75.83       75.78       75.73       75.67    
        75.62       75.56       75.49       75.41       75.33       75.23       75.13       75.03       74.92       74.81    
        74.69       74.57       74.45       74.33       74.20       74.06       73.92       73.78       73.64       73.49    
        73.34       73.18       73.03       72.87       72.71       72.54       72.37       72.20       72.03       71.86    
        71.68       71.50       71.32       71.14       70.95       70.76       70.58       70.39       70.19       70.00    
  50  -1000.0     -1000.0     -1000.0     -1000.0     -1000.0     -1000.0     -1000.0     -1000.0     -1000.0     -1000.0    
      -1000.0     -1000.0     -1000.0     -1000.0     -1000.0     -1000.0     -1000.0     -1000.0     -1000.0     -1000.0    
      -1000.0     -1000.0     -1000.0     -1000.0     -1000.0     -1000.0     -1000.0     -1000.0     -1000.0     -1000.0    
      -1000.0     -1000.0     -1000.0     -1000.0     -1000.0     -1000.0     -1000.0     -1000.0     -1000.0     -1000.0    
      -1000.0     -1000.0     -1000.0     -1000.0     -1000.0     -1000.0     -1000.0     -1000.0     -1000.0       70.00    
1
              HEAD IN LAYER   2 AT END OF TIME STEP   1 IN STRESS PERIOD    1
  ---------------------------------------------------------------------------

            1           2           3           4           5           6           7           8           9          10
           11          12          13          14          15          16          17          18          19          20
           21          22          23          24          25          26          27          28          29          30
           31          32          33          34          35          36          37          38          39          40
           41          42          43          44          45          46          47          48          49          50
 ........................................................................................................................
   1  -1000.0     -1000.0     -1000.0     -1000.0     -1000.0     -1000.0     -1000.0     -1000.0     -1000.0     -1000.0    
      -1000.0     -1000.0     -1000.0     -1000.0     -1000.0     -1000.0     -1000.0     -1000.0     -1000.0     -1000.0    
      -1000.0     -1000.0     -1000.0     -1000.0     -1000.0     -1000.0     -1000.0     -1000.0     -1000.0     -1000.0    
      -1000.0     -1000.0     -1000.0     -1000.0     -1000.0     -1000.0     -1000.0     -1000.0     -1000.0     -1000.0    
      -1000.0     -1000.0     -1000.0     -1000.0     -1000.0     -1000.0     -1000.0     -1000.0     -1000.0       70.00    
   2  -1000.0     -1000.0     -1000.0     -1000.0     -1000.0     -1000.0     -1000.0       75.85       75.80       75.74    
        75.69       75.63       75.55       75.47       75.39       75.29       75.20       75.09       74.98       74.87    
        74.75       74.63       74.50       74.37       74.24       74.10       73.96       73.82       73.67       73.52    
        73.36       73.21       73.05       72.88       72.72       72.55       72.38       72.21       72.03       71.86    
        71.68       71.50       71.31       71.13       70.94       70.76       70.57       70.38       70.19       70.00    
   3  -1000.0     -1000.0     -1000.0     -1000.0     -1000.0     -1000.0       75.91       75.86       75.80       75.75    
        75.70       75.63       75.56       75.48       75.39       75.30       75.20       75.10       74.99       74.87    
        74.76       74.63       74.51       74.38       74.24       74.11       73.97       73.82       73.67       73.52    
        73.37       73.21       73.05       72.89       72.72       72.55       72.38       72.21       72.04       71.86    
        71.68       71.50       71.32       71.13       70.95       70.76       70.57       70.38       70.19       70.00    
   4  -1000.0     -1000.0     -1000.0     -1000.0     -1000.0       75.98       75.93       75.88       75.83       75.78    
        75.72       75.65       75.57       75.49       75.40       75.31       75.21       75.11       75.00       74.88    
        74.76       74.64       74.52       74.39       74.25       74.11       73.97       73.83       73.68       73.53    
        73.37       73.21       73.05       72.89       72.73       72.56       72.39       72.21       72.04       71.86    
        71.68       71.50       71.32       71.13       70.95       70.76       70.57       70.38       70.19       70.00    
   5  -1000.0     -1000.0     -1000.0     -1000.0       76.05       76.01       75.96       75.91       75.86       75.80    
        75.74       75.67       75.59       75.51       75.42       75.32       75.22       75.12       75.01       74.90    
        74.78       74.65       74.53       74.40       74.26       74.12       73.98       73.84       73.69       73.53    
        73.38       73.22       73.06       72.90       72.73       72.56       72.39       72.22       72.04       71.87    
        71.69       71.50       71.32       71.14       70.95       70.76       70.57       70.38       70.19       70.00    
   6  -1000.0     -1000.0     -1000.0       76.12       76.09       76.04       76.00       75.95       75.89       75.83    
        75.77       75.69       75.62       75.53       75.44       75.34       75.24       75.14       75.03       74.91    
        74.79       74.67       74.54       74.41       74.28       74.14       73.99       73.85       73.70       73.55    
        73.39       73.23       73.07       72.91       72.74       72.57       72.40       72.23       72.05       71.87    
        71.69       71.51       71.33       71.14       70.95       70.76       70.57       70.38       70.19       70.00    
   7  -1000.0     -1000.0       76.19       76.16       76.13       76.08       76.04       75.99       75.93       75.87    
        75.80       75.73       75.65       75.56       75.47       75.37       75.27       75.16       75.05       74.93    
        74.81       74.69       74.56       74.43       74.29       74.15       74.01       73.86       73.71       73.56    
        73.40       73.24       73.08       72.92       72.75       72.58       72.41       72.24       72.06       71.88    
        71.70       71.52       71.33       71.15       70.96       70.77       70.58       70.39       70.19       70.00    
   8  -1000.0       76.24       76.23       76.20       76.17       76.13       76.08       76.03       75.97       75.91    
        75.84       75.76       75.68       75.59       75.50       75.40       75.30       75.19       75.08       74.96    
        74.84       74.71       74.59       74.45       74.31       74.17       74.03       73.88       73.73       73.58    
        73.42       73.26       73.10       72.93       72.76       72.59       72.42       72.25       72.07       71.89    
        71.71       71.53       71.34       71.15       70.96       70.77       70.58       70.39       70.19       70.00    
   9  -1000.0       76.29       76.28       76.25       76.21       76.17       76.13       76.07       76.02       75.95    
        75.88       75.80       75.72       75.63       75.53       75.43       75.33       75.22       75.11       74.99    
        74.87       74.74       74.61       74.48       74.34       74.20       74.05       73.90       73.75       73.60    
        73.44       73.28       73.11       72.95       72.78       72.61       72.44       72.26       72.08       71.90    
        71.72       71.53       71.35       71.16       70.97       70.78       70.59       70.39       70.20       70.00    
  10  -1000.0       76.34       76.32       76.30       76.26       76.22       76.18       76.12       76.07       76.00    
        75.93       75.85       75.76       75.66       75.57       75.47       75.36       75.26       75.14       75.02    
        74.90       74.78       74.64       74.51       74.37       74.22       74.08       73.93       73.77       73.62    
        73.46       73.30       73.13       72.97       72.80       72.62       72.45       72.27       72.10       71.91    
        71.73       71.55       71.36       71.17       70.98       70.78       70.59       70.39       70.20       70.00    
  11  -1000.0       76.38       76.37       76.35       76.32       76.28       76.23       76.18       76.12       76.05    
        75.98       75.90       75.80       75.71       75.61       75.51       75.40       75.30       75.18       75.06    
        74.94       74.81       74.68       74.54       74.40       74.26       74.11       73.95       73.80       73.64    
        73.48       73.32       73.15       72.99       72.82       72.64       72.47       72.29       72.11       71.93    
        71.75       71.56       71.37       71.18       70.99       70.79       70.60       70.40       70.20       70.00    
  12  -1000.0       76.44       76.43       76.41       76.38       76.34       76.30       76.24       76.18       76.11    
        76.04       75.95       75.86       75.75       75.64       75.55       75.45       75.34       75.23       75.11    
        74.98       74.85       74.72       74.58       74.44       74.29       74.14       73.98       73.83       73.67    
        73.51       73.34       73.18       73.01       72.84       72.66       72.49       72.31       72.13       71.95    
        71.76       71.57       71.38       71.19       71.00       70.80       70.60       70.40       70.20       70.00    
  13  -1000.0       76.50       76.49       76.48       76.45       76.41       76.37       76.31       76.25       76.18    
        76.10       76.02       75.92       75.80       75.65       75.59       75.50       75.40       75.28       75.16    
        75.03       74.90       74.76       74.62       74.47       74.33       74.17       74.02       73.86       73.70    
        73.54       73.37       73.20       73.03       72.86       72.69       72.51       72.33       72.15       71.97    
        71.78       71.59       71.40       71.21       71.01       70.81       70.61       70.41       70.20       70.00    
  14  -1000.0       76.58       76.57       76.55       76.52       76.49       76.44       76.39       76.33       76.26    
        76.18       76.09       75.99       75.88       75.77       75.67       75.57       75.46       75.34       75.22    
        75.09       74.95       74.81       74.67       74.52       74.36       74.21       74.05       73.89       73.73    
        73.57       73.40       73.23       73.06       72.89       72.71       72.53       72.35       72.17       71.99    
        71.80       71.61       71.42       71.22       71.02       70.82       70.62       70.41       70.21       70.00    
  15  -1000.0       76.66       76.65       76.63       76.60       76.57       76.52       76.47       76.41       76.34    
        76.26       76.17       76.08       75.97       75.86       75.76       75.65       75.53       75.41       75.28    
        75.14       75.01       74.86       74.71       74.56       74.41       74.25       74.09       73.93       73.76    
        73.60       73.43       73.26       73.09       72.91       72.74       72.56       72.38       72.20       72.01    
        71.82       71.63       71.44       71.24       71.04       70.83       70.63       70.42       70.21       70.00    
  16  -1000.0       76.75       76.74       76.72       76.69       76.66       76.61       76.56       76.50       76.43    
        76.35       76.26       76.17       76.07       75.96       75.85       75.73       75.61       75.48       75.35    
        75.21       75.06       74.92       74.77       74.61       74.45       74.29       74.13       73.97       73.80    
        73.63       73.46       73.29       73.12       72.94       72.77       72.59       72.41       72.22       72.04    
        71.85       71.65       71.46       71.26       71.06       70.85       70.64       70.43       70.21       70.00    
  17  -1000.0       76.84       76.84       76.82       76.79       76.76       76.71       76.66       76.60       76.53    
        76.45       76.36       76.26       76.16       76.05       75.94       75.82       75.69       75.56       75.42    
        75.28       75.13       74.98       74.82       74.66       74.50       74.34       74.17       74.00       73.84    
        73.67       73.50       73.32       73.15       72.98       72.80       72.62       72.44       72.25       72.06    
        71.87       71.68       71.48       71.28       71.08       70.87       70.65       70.44       70.22       70.00    
  18  -1000.0       76.95       76.94       76.92       76.90       76.86       76.82       76.76       76.70       76.63    
        76.55       76.46       76.37       76.26       76.15       76.03       75.91       75.78       75.64       75.50    
        75.35       75.20       75.04       74.88       74.71       74.55       74.38       74.21       74.05       73.88    
        73.71       73.53       73.36       73.19       73.01       72.83       72.65       72.47       72.28       72.09    
        71.90       71.71       71.51       71.31       71.10       70.89       70.67       70.45       70.23       70.00    
  19  -1000.0       77.06       77.05       77.03       77.01       76.97       76.93       76.87       76.81       76.74    
        76.66       76.57       76.48       76.37       76.26       76.14       76.01       75.88       75.73       75.58    
        75.43       75.27       75.11       74.94       74.77       74.60       74.43       74.26       74.09       73.92    
        73.74       73.57       73.40       73.22       73.05       72.87       72.69       72.50       72.32       72.13    
        71.94       71.74       71.54       71.34       71.13       70.91       70.69       70.46       70.23       70.00    
  20  -1000.0       77.18       77.17       77.15       77.13       77.09       77.05       76.99       76.93       76.86    
        76.78       76.69       76.59       76.48       76.37       76.25       76.11       75.98       75.83       75.68    
        75.51       75.34       75.17       75.00       74.83       74.65       74.48       74.30       74.13       73.96    
        73.78       73.61       73.44       73.26       73.08       72.91       72.72       72.54       72.35       72.17    
        71.98       71.78       71.58       71.37       71.16       70.94       70.71       70.48       70.24       70.00    
  21  -1000.0       77.31       77.30       77.28       77.25       77.22       77.17       77.12       77.06       76.98    
        76.90       76.81       76.71       76.60       76.49       76.36       76.23       76.09       75.94       75.78    
        75.60       75.42       75.24       75.06       74.88       74.70       74.52       74.35       74.17       74.00    
        73.83       73.65       73.48       73.30       73.13       72.95       72.76       72.58       72.39       72.21    
        72.02       71.82       71.62       71.41       71.19       70.97       70.74       70.50       70.25       70.00    
  22  -1000.0       77.44       77.43       77.41       77.39       77.35       77.31       77.25       77.19       77.12    
        77.03       76.94       76.84       76.73       76.61       76.48       76.34       76.20       76.05       75.88    
        75.69       75.50       75.31       75.12       74.94       74.75       74.57       74.39       74.22       74.04    
        73.87       73.69       73.52       73.34       73.17       72.99       72.81       72.62       72.44       72.25    
        72.06       71.87       71.66       71.45       71.23       71.00       70.76       70.52       70.26       70.00    
  23  -1000.0       77.58       77.57       77.56       77.53       77.49       77.45       77.39       77.33       77.26    
        77.17       77.08       76.98       76.87       76.75       76.61       76.47       76.32       76.15       75.98    
        75.77       75.57       75.37       75.18       74.98       74.80       74.61       74.43       74.26       74.08    
        73.91       73.73       73.56       73.39       73.21       73.03       72.85       72.67       72.49       72.30    
        72.11       71.91       71.71       71.50       71.28       71.04       70.80       70.54       70.27       70.00    
  24  -1000.0       77.73       77.72       77.70       77.68       77.64       77.60       77.54       77.48       77.41    
        77.32       77.23       77.13       77.01       76.89       76.75       76.60       76.44       76.27       76.09    
        75.85       75.63       75.42       75.22       75.02       74.83       74.65       74.47       74.29       74.11    
        73.94       73.77       73.59       73.42       73.25       73.07       72.89       72.71       72.53       72.34    
        72.15       71.95       71.75       71.54       71.31       71.08       70.83       70.56       70.29       70.00    
  25  -1000.0       77.89       77.88       77.86       77.83       77.80       77.75       77.70       77.63       77.56    
        77.48       77.39       77.28       77.17       77.04       76.90       76.75       76.59       76.41       76.23    
        75.90       75.65       75.44       75.23       75.04       74.85       74.66       74.48       74.30       74.12    
        73.95       73.78       73.61       73.43       73.26       73.09       72.91       72.73       72.55       72.36    
        72.17       71.97       71.77       71.55       71.33       71.09       70.84       70.58       70.30       70.00    
  26  -1000.0       77.73       77.72       77.70       77.68       77.64       77.60       77.54       77.48       77.40    
        77.32       77.23       77.12       77.01       76.88       76.74       76.59       76.42       76.25       76.07    
        75.83       75.61       75.40       75.20       75.01       74.82       74.63       74.45       74.27       74.10    
        73.92       73.75       73.58       73.40       73.23       73.06       72.88       72.70       72.52       72.33    
        72.14       71.94       71.74       71.52       71.30       71.07       70.82       70.56       70.28       70.00    
  27  -1000.0       77.58       77.57       77.55       77.53       77.49       77.45       77.39       77.33       77.25    
        77.17       77.08       76.97       76.86       76.73       76.59       76.44       76.28       76.11       75.93    
        75.74       75.54       75.34       75.15       74.96       74.77       74.58       74.40       74.22       74.05    
        73.88       73.70       73.53       73.36       73.18       73.01       72.83       72.65       72.47       72.28    
        72.09       71.89       71.69       71.48       71.25       71.02       70.78       70.53       70.27       70.00    
  28  -1000.0       77.44       77.43       77.41       77.38       77.35       77.30       77.25       77.19       77.11    
        77.03       76.94       76.84       76.72       76.60       76.46       76.31       76.16       75.99       75.82    
        75.64       75.46       75.27       75.08       74.90       74.71       74.53       74.35       74.17       74.00    
        73.82       73.65       73.48       73.30       73.13       72.95       72.78       72.60       72.41       72.23    
        72.04       71.84       71.64       71.42       71.21       70.98       70.74       70.50       70.25       70.00    
  29  -1000.0       77.30       77.29       77.27       77.25       77.21       77.17       77.11       77.05       76.98    
        76.90       76.81       76.71       76.59       76.47       76.34       76.20       76.05       75.89       75.72    
        75.55       75.38       75.20       75.02       74.84       74.65       74.48       74.30       74.12       73.95    
        73.77       73.60       73.43       73.25       73.08       72.90       72.73       72.55       72.36       72.18    
        71.98       71.79       71.59       71.38       71.16       70.94       70.71       70.48       70.24       70.00    
  30  -1000.0       77.17       77.16       77.15       77.12       77.09       77.04       76.99       76.93       76.85    
        76.77       76.68       76.58       76.47       76.36       76.23       76.09       75.94       75.79       75.63    
        75.47       75.30       75.13       74.95       74.78       74.60       74.42       74.25       74.07       73.90    
        73.73       73.55       73.38       73.21       73.03       72.86       72.68       72.50       72.31       72.13    
        71.94       71.74       71.54       71.34       71.13       70.91       70.69       70.46       70.23       70.00    
  31  -1000.0       77.05       77.04       77.03       77.00       76.97       76.92       76.87       76.81       76.74    
        76.66       76.57       76.47       76.36       76.25       76.12       75.99       75.85       75.70       75.55    
        75.39       75.23       75.06       74.89       74.72       74.55       74.37       74.20       74.03       73.86    
        73.68       73.51       73.34       73.16       72.99       72.81       72.64       72.46       72.27       72.09    
        71.90       71.70       71.50       71.30       71.09       70.88       70.67       70.45       70.22       70.00    
  32  -1000.0       76.94       76.93       76.91       76.89       76.85       76.81       76.76       76.70       76.63    
        76.55       76.46       76.36       76.26       76.15       76.02       75.89       75.76       75.61       75.47    
        75.31       75.16       74.99       74.83       74.66       74.49       74.32       74.15       73.98       73.81    
        73.64       73.47       73.30       73.13       72.95       72.78       72.60       72.42       72.24       72.05    
        71.86       71.67       71.47       71.27       71.07       70.86       70.65       70.43       70.22       70.00    
  33  -1000.0       76.83       76.82       76.81       76.78       76.75       76.70       76.65       76.59       76.52    
        76.45       76.36       76.27       76.16       76.05       75.93       75.81       75.67       75.54       75.39    
        75.24       75.09       74.93       74.77       74.61       74.45       74.28       74.11       73.94       73.77    
        73.61       73.44       73.26       73.09       72.92       72.74       72.56       72.38       72.20       72.02    
        71.83       71.64       71.44       71.25       71.04       70.84       70.63       70.42       70.21       70.00    
  34  -1000.0       76.73       76.73       76.71       76.68       76.65       76.61       76.55       76.49       76.43    
        76.35       76.27       76.17       76.07       75.97       75.85       75.73       75.60       75.46       75.32    
        75.18       75.03       74.88       74.72       74.56       74.40       74.24       74.07       73.91       73.74    
        73.57       73.40       73.23       73.06       72.89       72.71       72.53       72.35       72.17       71.99    
        71.80       71.61       71.42       71.22       71.03       70.82       70.62       70.41       70.21       70.00    
  35  -1000.0       76.64       76.63       76.62       76.59       76.56       76.51       76.46       76.40       76.34    
        76.26       76.18       76.09       75.99       75.88       75.77       75.65       75.52       75.39       75.26    
        75.12       74.97       74.82       74.67       74.51       74.36       74.20       74.03       73.87       73.70    
        73.54       73.37       73.20       73.03       72.86       72.68       72.51       72.33       72.15       71.96    
        71.78       71.59       71.40       71.21       71.01       70.81       70.61       70.41       70.20       70.00    
  36  -1000.0       76.56       76.55       76.53       76.51       76.47       76.43       76.38       76.32       76.26    
        76.18       76.10       76.01       75.91       75.81       75.70       75.58       75.46       75.33       75.20    
        75.06       74.92       74.77       74.62       74.47       74.31       74.16       74.00       73.84       73.67    
        73.51       73.34       73.17       73.00       72.83       72.66       72.48       72.30       72.12       71.94    
        71.76       71.57       71.38       71.19       71.00       70.80       70.60       70.40       70.20       70.00    
  37  -1000.0       76.48       76.47       76.45       76.43       76.39       76.35       76.30       76.24       76.18    
        76.11       76.03       75.94       75.84       75.74       75.63       75.52       75.40       75.27       75.14    
        75.01       74.87       74.72       74.58       74.43       74.28       74.12       73.96       73.80       73.64    
        73.48       73.31       73.15       72.98       72.81       72.63       72.46       72.28       72.10       71.92    
        71.74       71.55       71.37       71.18       70.98       70.79       70.59       70.40       70.20       70.00    
  38  -1000.0       76.41       76.40       76.38       76.36       76.32       76.28       76.23       76.17       76.11    
        76.04       75.96       75.87       75.78       75.68       75.57       75.46       75.34       75.22       75.09    
        74.96       74.82       74.68       74.54       74.39       74.24       74.09       73.93       73.77       73.61    
        73.45       73.29       73.12       72.95       72.78       72.61       72.44       72.26       72.08       71.90    
        71.72       71.54       71.35       71.16       70.97       70.78       70.59       70.39       70.20       70.00    
  39  -1000.0       76.35       76.34       76.32       76.29       76.26       76.21       76.16       76.11       76.04    
        75.97       75.90       75.81       75.72       75.62       75.52       75.40       75.29       75.17       75.04    
        74.91       74.78       74.64       74.50       74.36       74.21       74.06       73.90       73.75       73.59    
        73.43       73.27       73.10       72.93       72.76       72.59       72.42       72.25       72.07       71.89    
        71.71       71.52       71.34       71.15       70.96       70.77       70.58       70.39       70.19       70.00    
  40  -1000.0       76.30       76.28       76.26       76.23       76.20       76.15       76.10       76.05       75.99    
        75.92       75.84       75.76       75.66       75.57       75.46       75.36       75.24       75.12       75.00    
        74.87       74.74       74.60       74.47       74.32       74.18       74.03       73.88       73.72       73.56    
        73.41       73.24       73.08       72.91       72.75       72.58       72.40       72.23       72.05       71.87    
        71.69       71.51       71.33       71.14       70.95       70.77       70.58       70.38       70.19       70.00    
  41  -1000.0       76.26       76.24       76.21       76.18       76.14       76.10       76.05       75.99       75.93    
        75.86       75.79       75.70       75.62       75.52       75.42       75.31       75.20       75.08       74.96    
        74.84       74.71       74.57       74.43       74.29       74.15       74.00       73.85       73.70       73.54    
        73.38       73.22       73.06       72.90       72.73       72.56       72.39       72.21       72.04       71.86    
        71.68       71.50       71.32       71.13       70.95       70.76       70.57       70.38       70.19       70.00    
  42  -1000.0       76.21       76.19       76.17       76.13       76.09       76.05       76.00       75.94       75.88    
        75.82       75.74       75.66       75.57       75.48       75.38       75.27       75.16       75.05       74.93    
        74.80       74.67       74.54       74.41       74.27       74.12       73.98       73.83       73.68       73.52    
        73.37       73.21       73.04       72.88       72.71       72.55       72.37       72.20       72.03       71.85    
        71.67       71.49       71.31       71.13       70.94       70.76       70.57       70.38       70.19       70.00    
  43  -1000.0       76.16       76.15       76.13       76.09       76.05       76.01       75.96       75.90       75.84    
        75.77       75.70       75.62       75.53       75.44       75.34       75.24       75.13       75.02       74.90    
        74.77       74.65       74.52       74.38       74.24       74.10       73.96       73.81       73.66       73.51    
        73.35       73.19       73.03       72.87       72.70       72.53       72.36       72.19       72.02       71.84    
        71.66       71.48       71.30       71.12       70.94       70.75       70.56       70.38       70.19       70.00    
  44  -1000.0     -1000.0       76.11       76.08       76.05       76.01       75.96       75.91       75.86       75.80    
        75.73       75.66       75.58       75.50       75.41       75.31       75.21       75.10       74.99       74.87    
        74.75       74.62       74.49       74.36       74.22       74.08       73.94       73.79       73.64       73.49    
        73.34       73.18       73.02       72.85       72.69       72.52       72.35       72.18       72.01       71.83    
        71.66       71.48       71.30       71.12       70.93       70.75       70.56       70.37       70.19       70.00    
  45  -1000.0     -1000.0     -1000.0       76.05       76.01       75.97       75.93       75.88       75.82       75.77    
        75.70       75.63       75.55       75.47       75.38       75.29       75.18       75.08       74.97       74.85    
        74.73       74.60       74.48       74.34       74.21       74.07       73.93       73.78       73.63       73.48    
        73.32       73.17       73.01       72.84       72.68       72.51       72.34       72.17       72.00       71.83    
        71.65       71.47       71.29       71.11       70.93       70.74       70.56       70.37       70.19       70.00    
  46  -1000.0     -1000.0     -1000.0     -1000.0       75.98       75.94       75.89       75.84       75.79       75.74    
        75.67       75.61       75.53       75.45       75.36       75.26       75.16       75.06       74.95       74.83    
        74.71       74.59       74.46       74.33       74.19       74.06       73.91       73.77       73.62       73.47    
        73.31       73.16       73.00       72.84       72.67       72.51       72.34       72.17       72.00       71.82    
        71.65       71.47       71.29       71.11       70.93       70.74       70.56       70.37       70.19       70.00    
  47  -1000.0     -1000.0     -1000.0     -1000.0     -1000.0       75.91       75.86       75.81       75.76       75.71    
        75.65       75.58       75.51       75.43       75.34       75.25       75.15       75.04       74.93       74.82    
        74.70       74.58       74.45       74.32       74.18       74.05       73.90       73.76       73.61       73.46    
        73.31       73.15       72.99       72.83       72.67       72.50       72.33       72.16       71.99       71.82    
        71.64       71.46       71.29       71.10       70.92       70.74       70.56       70.37       70.19       70.00    
  48  -1000.0     -1000.0     -1000.0     -1000.0     -1000.0     -1000.0       75.84       75.79       75.74       75.69    
        75.63       75.57       75.50       75.42       75.33       75.24       75.14       75.03       74.92       74.81    
        74.69       74.57       74.44       74.31       74.18       74.04       73.90       73.75       73.61       73.46    
        73.30       73.15       72.99       72.83       72.66       72.50       72.33       72.16       71.99       71.81    
        71.64       71.46       71.28       71.10       70.92       70.74       70.56       70.37       70.19       70.00    
  49  -1000.0     -1000.0     -1000.0     -1000.0     -1000.0     -1000.0     -1000.0       75.78       75.73       75.67    
        75.62       75.56       75.49       75.41       75.33       75.23       75.13       75.03       74.92       74.81    
        74.69       74.57       74.44       74.31       74.17       74.04       73.90       73.75       73.60       73.45    
        73.30       73.14       72.99       72.82       72.66       72.50       72.33       72.16       71.99       71.81    
        71.64       71.46       71.28       71.10       70.92       70.74       70.55       70.37       70.19       70.00    
  50  -1000.0     -1000.0     -1000.0     -1000.0     -1000.0     -1000.0     -1000.0     -1000.0     -1000.0     -1000.0    
      -1000.0     -1000.0     -1000.0     -1000.0     -1000.0     -1000.0     -1000.0     -1000.0     -1000.0     -1000.0    
      -1000.0     -1000.0     -1000.0     -1000.0     -1000.0     -1000.0     -1000.0     -1000.0     -1000.0     -1000.0    
      -1000.0     -1000.0     -1000.0     -1000.0     -1000.0     -1000.0     -1000.0     -1000.0     -1000.0     -1000.0    
      -1000.0     -1000.0     -1000.0     -1000.0     -1000.0     -1000.0     -1000.0     -1000.0     -1000.0       70.00    
1
              HEAD IN LAYER   3 AT END OF TIME STEP   1 IN STRESS PERIOD    1
  ---------------------------------------------------------------------------

            1           2           3           4           5           6           7           8           9          10
           11          12          13          14          15          16          17          18          19          20
           21          22          23          24          25          26          27          28          29          30
           31          32          33          34          35          36          37          38          39          40
[...]
        75.72       75.47       75.23       75.01       74.79       74.58       74.38       74.18       73.99       73.79    
        73.60       73.41       73.22       73.02       72.83       72.63       72.43       72.22       72.01       71.84    
        71.68       71.51       71.33       71.15       70.96       70.77       70.58       70.39       70.19       70.00    
  24  -1000.0       77.73       77.72       77.70       77.68       77.64       77.60       77.54       77.48       77.41    
        77.32       77.23       77.13       77.01       76.89       76.75       76.60       76.44       76.27       76.09    
        75.79       75.51       75.26       75.03       74.81       74.59       74.39       74.19       73.99       73.80    
        73.61       73.42       73.22       73.03       72.84       72.64       72.44       72.24       72.05       71.87    
        71.69       71.52       71.34       71.15       70.96       70.78       70.58       70.39       70.20       70.00    
  25  -1000.0       77.89       77.88       77.86       77.83       77.80       77.75       77.70       77.63       77.56    
        77.48       77.39       77.28       77.17       77.04       76.90       76.75       76.59       76.41       76.23    
        75.83       75.53       75.27       75.03       74.81       74.60       74.39       74.19       73.99       73.80    
        73.61       73.42       73.23       73.03       72.84       72.65       72.46       72.26       72.07       71.89    
        71.71       71.52       71.34       71.16       70.97       70.78       70.58       70.39       70.20       70.00    
  26  -1000.0       77.73       77.72       77.70       77.68       77.64       77.60       77.54       77.48       77.40    
        77.32       77.23       77.12       77.01       76.88       76.74       76.59       76.42       76.25       76.07    
        75.77       75.50       75.25       75.02       74.80       74.59       74.39       74.19       73.99       73.80    
        73.61       73.42       73.23       73.04       72.85       72.65       72.46       72.27       72.09       71.90    
        71.72       71.53       71.35       71.16       70.97       70.78       70.59       70.39       70.20       70.00    
  27  -1000.0       77.58       77.57       77.55       77.53       77.49       77.45       77.39       77.33       77.25    
        77.17       77.08       76.97       76.86       76.73       76.59       76.44       76.28       76.11       75.93    
        75.69       75.45       75.22       74.99       74.78       74.57       74.37       74.17       73.98       73.79    
        73.60       73.41       73.22       73.03       72.84       72.66       72.47       72.28       72.09       71.90    
        71.72       71.53       71.35       71.16       70.97       70.78       70.58       70.39       70.20       70.00    
  28  -1000.0       77.44       77.43       77.41       77.38       77.35       77.30       77.25       77.19       77.11    
        77.03       76.94       76.84       76.72       76.60       76.46       76.31       76.16       75.99       75.82    
        75.60       75.38       75.17       74.96       74.75       74.55       74.35       74.16       73.97       73.78    
        73.59       73.40       73.21       73.03       72.84       72.65       72.47       72.28       72.09       71.91    
        71.72       71.53       71.35       71.16       70.97       70.78       70.58       70.39       70.19       70.00    
  29  -1000.0       77.30       77.29       77.27       77.25       77.21       77.17       77.11       77.05       76.98    
        76.90       76.81       76.71       76.59       76.47       76.34       76.20       76.05       75.89       75.72    
        75.52       75.32       75.12       74.91       74.72       74.52       74.33       74.14       73.95       73.76    
        73.57       73.39       73.20       73.02       72.83       72.65       72.46       72.28       72.09       71.90    
        71.72       71.53       71.34       71.15       70.96       70.77       70.58       70.39       70.19       70.00    
  30  -1000.0       77.17       77.16       77.15       77.12       77.09       77.04       76.99       76.93       76.85    
        76.77       76.68       76.58       76.47       76.36       76.23       76.09       75.94       75.79       75.63    
        75.44       75.25       75.06       74.87       74.68       74.49       74.30       74.11       73.93       73.74    
        73.56       73.37       73.19       73.01       72.82       72.64       72.45       72.27       72.08       71.90    
        71.71       71.53       71.34       71.15       70.96       70.77       70.58       70.39       70.19       70.00    
  31  -1000.0       77.05       77.04       77.03       77.00       76.97       76.92       76.87       76.81       76.74    
        76.66       76.57       76.47       76.36       76.25       76.12       75.99       75.85       75.70       75.55    
        75.37       75.19       75.00       74.82       74.64       74.45       74.27       74.09       73.90       73.72    
        73.54       73.36       73.18       72.99       72.81       72.63       72.45       72.26       72.08       71.89    
        71.71       71.52       71.33       71.15       70.96       70.77       70.58       70.38       70.19       70.00    
  32  -1000.0       76.94       76.93       76.91       76.89       76.85       76.81       76.76       76.70       76.63    
        76.55       76.46       76.36       76.26       76.15       76.02       75.89       75.76       75.61       75.47    
        75.30       75.12       74.95       74.77       74.59       74.42       74.24       74.06       73.88       73.70    
        73.52       73.34       73.16       72.98       72.80       72.62       72.44       72.25       72.07       71.89    
        71.70       71.51       71.33       71.14       70.95       70.76       70.57       70.38       70.19       70.00    
  33  -1000.0       76.83       76.82       76.81       76.78       76.75       76.70       76.65       76.59       76.52    
        76.45       76.36       76.27       76.16       76.05       75.93       75.81       75.67       75.54       75.39    
        75.23       75.06       74.90       74.72       74.55       74.38       74.20       74.03       73.85       73.67    
        73.50       73.32       73.14       72.96       72.78       72.60       72.42       72.24       72.06       71.88    
        71.69       71.51       71.32       71.14       70.95       70.76       70.57       70.38       70.19       70.00    
  34  -1000.0       76.73       76.73       76.71       76.68       76.65       76.61       76.55       76.49       76.43    
        76.35       76.27       76.17       76.07       75.97       75.85       75.73       75.60       75.46       75.32    
        75.17       75.01       74.84       74.68       74.51       74.34       74.17       74.00       73.82       73.65    
        73.48       73.30       73.12       72.95       72.77       72.59       72.41       72.23       72.05       71.87    
        71.68       71.50       71.32       71.13       70.94       70.76       70.57       70.38       70.19       70.00    
  35  -1000.0       76.64       76.63       76.62       76.59       76.56       76.51       76.46       76.40       76.34    
        76.26       76.18       76.09       75.99       75.88       75.77       75.65       75.52       75.39       75.26    
        75.11       74.95       74.79       74.63       74.47       74.30       74.14       73.97       73.80       73.63    
        73.45       73.28       73.11       72.93       72.75       72.58       72.40       72.22       72.04       71.86    
        71.68       71.49       71.31       71.12       70.94       70.75       70.56       70.38       70.19       70.00    
  36  -1000.0       76.56       76.55       76.53       76.51       76.47       76.43       76.38       76.32       76.26    
        76.18       76.10       76.01       75.91       75.81       75.70       75.58       75.46       75.33       75.20    
        75.05       74.90       74.75       74.59       74.43       74.27       74.10       73.94       73.77       73.60    
        73.43       73.26       73.09       72.91       72.74       72.56       72.39       72.21       72.03       71.85    
        71.67       71.49       71.30       71.12       70.93       70.75       70.56       70.37       70.19       70.00    
  37  -1000.0       76.48       76.47       76.45       76.43       76.39       76.35       76.30       76.24       76.18    
        76.11       76.03       75.94       75.84       75.74       75.63       75.52       75.40       75.27       75.14    
        75.00       74.85       74.70       74.55       74.39       74.23       74.07       73.91       73.75       73.58    
        73.41       73.24       73.07       72.90       72.73       72.55       72.37       72.20       72.02       71.84    
        71.66       71.48       71.30       71.11       70.93       70.74       70.56       70.37       70.19       70.00    
  38  -1000.0       76.41       76.40       76.38       76.36       76.32       76.28       76.23       76.17       76.11    
        76.04       75.96       75.87       75.78       75.68       75.57       75.46       75.34       75.22       75.09    
        74.95       74.81       74.66       74.51       74.36       74.20       74.04       73.88       73.72       73.56    
        73.39       73.22       73.05       72.88       72.71       72.54       72.36       72.19       72.01       71.83    
        71.65       71.47       71.29       71.11       70.92       70.74       70.56       70.37       70.19       70.00    
  39  -1000.0       76.35       76.34       76.32       76.29       76.26       76.21       76.16       76.11       76.04    
        75.97       75.90       75.81       75.72       75.62       75.52       75.40       75.29       75.17       75.04    
        74.91       74.77       74.62       74.48       74.33       74.17       74.02       73.86       73.70       73.54    
        73.37       73.21       73.04       72.87       72.70       72.53       72.35       72.18       72.00       71.82    
        71.64       71.46       71.28       71.10       70.92       70.74       70.55       70.37       70.18       70.00    
  40  -1000.0       76.30       76.28       76.26       76.23       76.20       76.15       76.10       76.05       75.99    
        75.92       75.84       75.76       75.66       75.57       75.46       75.36       75.24       75.12       75.00    
        74.87       74.73       74.59       74.44       74.30       74.14       73.99       73.83       73.68       73.52    
        73.35       73.19       73.02       72.85       72.68       72.51       72.34       72.17       71.99       71.81    
        71.64       71.46       71.28       71.10       70.92       70.73       70.55       70.37       70.18       70.00    
  41  -1000.0       76.26       76.24       76.21       76.18       76.14       76.10       76.05       75.99       75.93    
        75.86       75.79       75.70       75.62       75.52       75.42       75.31       75.20       75.08       74.96    
        74.83       74.69       74.56       74.41       74.27       74.12       73.97       73.81       73.66       73.50    
        73.34       73.17       73.01       72.84       72.67       72.50       72.33       72.16       71.98       71.81    
        71.63       71.45       71.27       71.09       70.91       70.73       70.55       70.37       70.18       70.00    
  42  -1000.0     -1000.0       76.19       76.17       76.13       76.09       76.05       76.00       75.94       75.88    
        75.82       75.74       75.66       75.57       75.48       75.38       75.27       75.16       75.05       74.93    
        74.80       74.66       74.53       74.39       74.24       74.10       73.95       73.79       73.64       73.48    
        73.32       73.16       73.00       72.83       72.66       72.49       72.32       72.15       71.98       71.80    
        71.62       71.45       71.27       71.09       70.91       70.73       70.55       70.36       70.18       70.00    
  43  -1000.0     -1000.0     -1000.0       76.13       76.09       76.05       76.01       75.96       75.90       75.84    
        75.77       75.70       75.62       75.53       75.44       75.34       75.24       75.13       75.02       74.90    
        74.77       74.64       74.50       74.36       74.22       74.08       73.93       73.78       73.62       73.47    
        73.31       73.15       72.98       72.82       72.65       72.48       72.31       72.14       71.97       71.79    
        71.62       71.44       71.26       71.09       70.91       70.73       70.54       70.36       70.18       70.00    
  44  -1000.0     -1000.0     -1000.0     -1000.0       76.05       76.01       75.96       75.91       75.86       75.80    
        75.73       75.66       75.58       75.50       75.41       75.31       75.21       75.10       74.99       74.87    
        74.74       74.61       74.48       74.34       74.20       74.06       73.91       73.76       73.61       73.45    
        73.30       73.14       72.97       72.81       72.64       72.48       72.31       72.14       71.96       71.79    
        71.61       71.44       71.26       71.08       70.90       70.72       70.54       70.36       70.18       70.00    
  45  -1000.0     -1000.0     -1000.0     -1000.0     -1000.0       75.97       75.93       75.88       75.82       75.77    
        75.70       75.63       75.55       75.47       75.38       75.29       75.18       75.08       74.97       74.85    
        74.72       74.60       74.46       74.33       74.19       74.04       73.90       73.75       73.60       73.44    
        73.29       73.13       72.96       72.80       72.64       72.47       72.30       72.13       71.96       71.78    
        71.61       71.43       71.26       71.08       70.90       70.72       70.54       70.36       70.18       70.00    
  46  -1000.0     -1000.0     -1000.0     -1000.0     -1000.0     -1000.0       75.89       75.84       75.79       75.74    
        75.67       75.61       75.53       75.45       75.36       75.26       75.16       75.06       74.95       74.83    
        74.71       74.58       74.45       74.31       74.17       74.03       73.89       73.74       73.59       73.43    
        73.28       73.12       72.96       72.80       72.63       72.46       72.30       72.13       71.95       71.78    
        71.61       71.43       71.25       71.08       70.90       70.72       70.54       70.36       70.18       70.00    
  47  -1000.0     -1000.0     -1000.0     -1000.0     -1000.0     -1000.0     -1000.0       75.81       75.76       75.71    
        75.65       75.58       75.51       75.43       75.34       75.25       75.15       75.04       74.93       74.82    
        74.70       74.57       74.44       74.30       74.17       74.02       73.88       73.73       73.58       73.43    
        73.27       73.11       72.95       72.79       72.63       72.46       72.29       72.12       71.95       71.78    
        71.60       71.43       71.25       71.08       70.90       70.72       70.54       70.36       70.18       70.00    
  48  -1000.0     -1000.0     -1000.0     -1000.0     -1000.0     -1000.0     -1000.0     -1000.0       75.74       75.69    
        75.63       75.57       75.50       75.42       75.33       75.24       75.14       75.03       74.92       74.81    
        74.69       74.56       74.43       74.30       74.16       74.02       73.87       73.73       73.58       73.42    
        73.27       73.11       72.95       72.79       72.62       72.46       72.29       72.12       71.95       71.78    
        71.60       71.43       71.25       71.07       70.90       70.72       70.54       70.36       70.18       70.00    
  49  -1000.0     -1000.0     -1000.0     -1000.0     -1000.0     -1000.0     -1000.0     -1000.0     -1000.0       75.67    
        75.62       75.56       75.49       75.41       75.33       75.23       75.13       75.03       74.92       74.81    
        74.68       74.56       74.43       74.29       74.16       74.01       73.87       73.72       73.57       73.42    
        73.27       73.11       72.95       72.79       72.62       72.46       72.29       72.12       71.95       71.78    
        71.60       71.43       71.25       71.07       70.90       70.72       70.54       70.36       70.18       70.00    
  50  -1000.0     -1000.0     -1000.0     -1000.0     -1000.0     -1000.0     -1000.0     -1000.0     -1000.0     -1000.0    
      -1000.0     -1000.0     -1000.0     -1000.0     -1000.0     -1000.0     -1000.0     -1000.0     -1000.0     -1000.0    
      -1000.0     -1000.0     -1000.0     -1000.0     -1000.0     -1000.0     -1000.0     -1000.0     -1000.0     -1000.0    
      -1000.0     -1000.0     -1000.0     -1000.0     -1000.0     -1000.0     -1000.0     -1000.0     -1000.0     -1000.0    
      -1000.0     -1000.0     -1000.0     -1000.0     -1000.0     -1000.0     -1000.0     -1000.0     -1000.0       70.00    

 HEAD WILL BE SAVED ON UNIT   51 AT END OF TIME STEP    1, STRESS PERIOD    1

 DRAWDOWN WILL BE SAVED ON UNIT   52 AT END OF TIME STEP    1, STRESS PERIOD    1
1
  VOLUMETRIC BUDGET FOR ENTIRE MODEL AT END OF TIME STEP    1, STRESS PERIOD   1
  ------------------------------------------------------------------------------

     CUMULATIVE VOLUMES      L**3       RATES FOR THIS TIME STEP      L**3/T
     ------------------                 ------------------------

           IN:                                      IN:
           ---                                      ---
             STORAGE =           0.0000               STORAGE =           0.0000
       CONSTANT HEAD =           0.0000         CONSTANT HEAD =           0.0000
               WELLS =         375.0000                 WELLS =         375.0000
       RIVER LEAKAGE =      114501.4375         RIVER LEAKAGE =      114501.4375
                  ET =           0.0000                    ET =           0.0000
            RECHARGE =        7120.0000              RECHARGE =        7120.0000

            TOTAL IN =      121996.4375              TOTAL IN =      121996.4375

          OUT:                                     OUT:
          ----                                     ----
             STORAGE =           0.0000               STORAGE =           0.0000
       CONSTANT HEAD =       72880.6641         CONSTANT HEAD =       72880.6641
               WELLS =        3000.0000                 WELLS =        3000.0000
       RIVER LEAKAGE =           0.0000         RIVER LEAKAGE =           0.0000
                  ET =       46115.7383                    ET =       46115.7383
            RECHARGE =           0.0000              RECHARGE =           0.0000

           TOTAL OUT =      121996.4062             TOTAL OUT =      121996.4062

            IN - OUT =       3.1250E-02              IN - OUT =       3.1250E-02

 PERCENT DISCREPANCY =           0.00     PERCENT DISCREPANCY =           0.00






         TIME SUMMARY AT END OF TIME STEP    1 IN STRESS PERIOD    1
                    SECONDS     MINUTES      HOURS       DAYS        YEARS
                    -----------------------------------------------------------
   TIME STEP LENGTH  86400.      1440.0      24.000      1.0000     2.73785E-03
 STRESS PERIOD TIME  86400.      1440.0      24.000      1.0000     2.73785E-03
         TOTAL TIME  86400.      1440.0      24.000      1.0000     2.73785E-03
1

 Run end date and time (yyyy/mm/dd hh:mm:ss): 2026/02/25 16:26:22
 Elapsed run time: 13.048 Seconds

