                                  MODFLOW-2005     
      U.S. GEOLOGICAL SURVEY MODULAR FINITE-DIFFERENCE GROUND-WATER FLOW MODEL
                            VERSION 1.12.00 2/3/2017

 LIST FILE: static_ensemble_1111331.list
                         UNIT    2

 OPENING static_ensemble_1111331.dis
 FILE TYPE:DIS   UNIT   11   STATUS:OLD    
 FORMAT:FORMATTED              ACCESS:SEQUENTIAL          

 OPENING static_ensemble_1111331.bas
 FILE TYPE:BAS6   UNIT   13   STATUS:OLD    
 FORMAT:FORMATTED              ACCESS:SEQUENTIAL          

 OPENING static_ensemble_1111331.lpf
 FILE TYPE:LPF   UNIT   15   STATUS:OLD    
 FORMAT:FORMATTED              ACCESS:SEQUENTIAL          

 OPENING static_ensemble_1111331.evt
 FILE TYPE:EVT   UNIT   22   STATUS:OLD    
 FORMAT:FORMATTED              ACCESS:SEQUENTIAL          

 OPENING static_ensemble_1111331.rch
 FILE TYPE:RCH   UNIT   19   STATUS:OLD    
 FORMAT:FORMATTED              ACCESS:SEQUENTIAL          

 OPENING static_ensemble_1111331.riv
 FILE TYPE:RIV   UNIT   18   STATUS:OLD    
 FORMAT:FORMATTED              ACCESS:SEQUENTIAL          

 OPENING static_ensemble_1111331.wel
 FILE TYPE:WEL   UNIT   20   STATUS:OLD    
 FORMAT:FORMATTED              ACCESS:SEQUENTIAL          

 OPENING static_ensemble_1111331.oc
 FILE TYPE:OC   UNIT   14   STATUS:OLD    
 FORMAT:FORMATTED              ACCESS:SEQUENTIAL          

 OPENING static_ensemble_1111331.pcg
 FILE TYPE:PCG   UNIT   27   STATUS:OLD    
 FORMAT:FORMATTED              ACCESS:SEQUENTIAL          

 OPENING static_ensemble_1111331.cbc
 FILE TYPE:DATA(BINARY)   UNIT   53   STATUS:REPLACE
 FORMAT:UNFORMATTED            ACCESS:STREAM              

 OPENING static_ensemble_1111331.hds
 FILE TYPE:DATA(BINARY)   UNIT   51   STATUS:REPLACE
 FORMAT:UNFORMATTED            ACCESS:STREAM              

 OPENING static_ensemble_1111331.ddn
 FILE TYPE:DATA(BINARY)   UNIT   52   STATUS:REPLACE
 FORMAT:UNFORMATTED            ACCESS:STREAM              

 BAS -- BASIC PACKAGE, VERSION 7, 5/2/2005 INPUT READ FROM UNIT   13
 
 MODFLOW was compiled using mixed precision
 Precision of REAL variables:           6
 Precision of DOUBLE PRECISION variables:          15

 DISCRETIZATION INPUT DATA READ FROM UNIT   11
 # DIS package for MODFLOW-2005 generated by Flopy 3.9.5
    3 LAYERS        50 ROWS        50 COLUMNS
    1 STRESS PERIOD(S) IN SIMULATION
 MODEL TIME UNIT IS DAYS
 MODEL LENGTH UNIT IS METERS
  Confining bed flag for each layer:
   0   0   0

                     DELR =   1000.00    

                     DELC =   1000.00    



           TOP ELEVATION OF LAYER 1
 READING ON UNIT   11 WITH FORMAT: (50E15.6)           



             MODEL LAYER BOTTOM EL. FOR LAYER   1
 READING ON UNIT   11 WITH FORMAT: (50E15.6)           



             MODEL LAYER BOTTOM EL. FOR LAYER   2
 READING ON UNIT   11 WITH FORMAT: (50E15.6)           



             MODEL LAYER BOTTOM EL. FOR LAYER   3
 READING ON UNIT   11 WITH FORMAT: (50E15.6)           


 STRESS PERIOD     LENGTH       TIME STEPS     MULTIPLIER FOR DELT    SS FLAG
 ----------------------------------------------------------------------------
        1         1.000000          1                    1.000         SS

 STEADY-STATE SIMULATION



 
 # BAS6 package for MODFLOW-2005 generated by Flopy 3.9.5                        
 THE FREE FORMAT OPTION HAS BEEN SELECTED



                     BOUNDARY ARRAY FOR LAYER   1
 READING ON UNIT   13 WITH FORMAT: (50I10)             



                     BOUNDARY ARRAY FOR LAYER   2
 READING ON UNIT   13 WITH FORMAT: (50I10)             



                     BOUNDARY ARRAY FOR LAYER   3
 READING ON UNIT   13 WITH FORMAT: (50I10)             

 AQUIFER HEAD WILL BE SET TO  -999.99     AT ALL NO-FLOW NODES (IBOUND=0).



                       INITIAL HEAD FOR LAYER   1
 READING ON UNIT   13 WITH FORMAT: (50E15.6)           



                       INITIAL HEAD FOR LAYER   2
 READING ON UNIT   13 WITH FORMAT: (50E15.6)           



                       INITIAL HEAD FOR LAYER   3
 READING ON UNIT   13 WITH FORMAT: (50E15.6)           
 # OC package for MODFLOW-2005 generated by Flopy 3.9.5

 OUTPUT CONTROL IS SPECIFIED ONLY AT TIME STEPS FOR WHICH OUTPUT IS DESIRED
 COMPACT CELL-BY-CELL BUDGET FILES WILL BE WRITTEN
 AUXILIARY DATA WILL BE SAVED IN CELL-BY-CELL BUDGET FILES
 HEAD PRINT FORMAT CODE IS   0    DRAWDOWN PRINT FORMAT CODE IS   0
 HEADS WILL BE SAVED ON UNIT   51    DRAWDOWNS WILL BE SAVED ON UNIT   52

 LPF -- LAYER-PROPERTY FLOW PACKAGE, VERSION 7, 5/2/2005
         INPUT READ FROM UNIT   15
 # LPF package for MODFLOW-2005 generated by Flopy 3.9.5
 CELL-BY-CELL FLOWS WILL BE SAVED ON UNIT   53
 HEAD AT CELLS THAT CONVERT TO DRY= -1.00000E+30
 No named parameters
 STORAGECOEFFICIENT OPTION:
 Read storage coefficient rather than specific storage

   LAYER FLAGS:
 LAYER       LAYTYP        LAYAVG         CHANI        LAYVKA        LAYWET
 ---------------------------------------------------------------------------
    1             1             0     1.000E+00             0             0
    2             1             0     1.000E+00             0             0
    3             1             0     1.000E+00             0             0

   INTERPRETATION OF LAYER FLAGS:
                        INTERBLOCK     HORIZONTAL    DATA IN
         LAYER TYPE   TRANSMISSIVITY   ANISOTROPY   ARRAY VKA   WETTABILITY
 LAYER      (LAYTYP)      (LAYAVG)       (CHANI)      (LAYVKA)      (LAYWET)
 ---------------------------------------------------------------------------
    1   CONVERTIBLE      HARMONIC     1.000E+00    VERTICAL K  NON-WETTABLE
    2   CONVERTIBLE      HARMONIC     1.000E+00    VERTICAL K  NON-WETTABLE
    3   CONVERTIBLE      HARMONIC     1.000E+00    VERTICAL K  NON-WETTABLE

 WETTING CAPABILITY IS NOT ACTIVE IN ANY LAYER



              HYD. COND. ALONG ROWS FOR LAYER   1
 READING ON UNIT   15 WITH FORMAT: (50E15.6)           



                VERTICAL HYD. COND. FOR LAYER   1
 READING ON UNIT   15 WITH FORMAT: (50E15.6)           



              HYD. COND. ALONG ROWS FOR LAYER   2
 READING ON UNIT   15 WITH FORMAT: (50E15.6)           



                VERTICAL HYD. COND. FOR LAYER   2
 READING ON UNIT   15 WITH FORMAT: (50E15.6)           



              HYD. COND. ALONG ROWS FOR LAYER   3
 READING ON UNIT   15 WITH FORMAT: (50E15.6)           



                VERTICAL HYD. COND. FOR LAYER   3
 READING ON UNIT   15 WITH FORMAT: (50E15.6)           

 WEL -- WELL PACKAGE, VERSION 7, 5/2/2005 INPUT READ FROM UNIT   20
 # WEL package for MODFLOW-2005 generated by Flopy 3.9.5
 No named parameters
 MAXIMUM OF      3 ACTIVE WELLS AT ONE TIME


     0 Well parameters

 RIV -- RIVER PACKAGE, VERSION 7, 5/2/2005 INPUT READ FROM UNIT   18
 # RIV package for MODFLOW-2005 generated by Flopy 3.9.5
 No named parameters
 MAXIMUM OF     49 ACTIVE RIVER REACHES AT ONE TIME
 CELL-BY-CELL FLOWS WILL BE SAVED ON UNIT   53


     0 River parameters

 EVT -- EVAPOTRANSPIRATION PACKAGE, VERSION 7, 5/2/2005
         INPUT READ FROM UNIT   22
 # EVT package for MODFLOW-2005 generated by Flopy 3.9.5
 No named parameters
 OPTION 3 -- EVAPOTRANSPIRATION FROM HIGHEST ACTIVE NODE IN EACH VERTICAL COLUMN
 CELL-BY-CELL FLOWS WILL BE SAVED ON UNIT   53


     0 Evapotranspiration parameters

 RCH -- RECHARGE PACKAGE, VERSION 7, 5/2/2005 INPUT READ FROM UNIT   19
 # RCH package for MODFLOW-2005 generated by Flopy 3.9.5
 No named parameters
 OPTION 3 -- RECHARGE TO HIGHEST ACTIVE NODE IN EACH VERTICAL COLUMN
 CELL-BY-CELL FLOWS WILL BE SAVED ON UNIT   53


     0 Recharge parameters

 PCG -- CONJUGATE-GRADIENT SOLUTION PACKAGE, VERSION 7, 5/2/2005
 # PCG package for MODFLOW-2005 generated by Flopy 3.9.5
 MAXIMUM OF   5000 CALLS OF SOLUTION ROUTINE
 MAXIMUM OF    500 INTERNAL ITERATIONS PER CALL TO SOLUTION ROUTINE
 MATRIX PRECONDITIONING TYPE :    1



                                    SOLUTION BY THE CONJUGATE-GRADIENT METHOD
                                   -------------------------------------------
                    MAXIMUM NUMBER OF CALLS TO PCG ROUTINE =     5000
                        MAXIMUM ITERATIONS PER CALL TO PCG =      500
                               MATRIX PRECONDITIONING TYPE =        1
        RELAXATION FACTOR (ONLY USED WITH PRECOND. TYPE 1) =    0.97000E+00
 PARAMETER OF POLYNOMIAL PRECOND. = 2 (2) OR IS CALCULATED :        0
                         HEAD CHANGE CRITERION FOR CLOSURE =    0.10000E-04
                     RESIDUAL CHANGE CRITERION FOR CLOSURE =    0.10000E-04
            PCG HEAD AND RESIDUAL CHANGE PRINTOUT INTERVAL =      999
     PRINTING FROM SOLVER IS LIMITED(1) OR SUPPRESSED (>1) =        3
                            STEADY-STATE DAMPING PARAMETER =    0.10000E-01
                               TRANSIENT DAMPING PARAMETER =    0.10000E-01
1
                            STRESS PERIOD NO.    1, LENGTH =   1.000000    
                            -----------------------------------------------

                              NUMBER OF TIME STEPS =     1

                               MULTIPLIER FOR DELT =     1.000

                            INITIAL TIME STEP SIZE =   1.000000    

 WELL NO.  LAYER   ROW   COL   STRESS RATE         
 --------------------------------------------------
      1      3     22     39      -1500.    
      2      1     13     15      -4500.    
      3      1     25     26       375.0    

      3 WELLS

 REACH NO.  LAYER   ROW   COL     STAGE      CONDUCTANCE     BOTTOM EL.         
 -------------------------------------------------------------------------------
      1      1     25      2       100.5           50.00           98.00    
      2      1     25      3       99.50           50.00           97.00    
      3      1     25      4       98.50           50.00           96.00    
      4      1     25      5       97.50           50.00           95.00    
      5      1     25      6       96.50           50.00           94.00    
      6      1     25      7       95.50           50.00           93.00    
      7      1     25      8       94.50           50.00           92.00    
      8      1     25      9       93.50           50.00           91.00    
      9      1     25     10       92.50           50.00           90.00    
     10      1     25     11       91.50           50.00           89.00    
     11      1     25     12       90.50           50.00           88.00    
     12      1     25     13       89.50           50.00           87.00    
     13      1     25     14       88.50           50.00           86.00    
     14      1     25     15       87.50           50.00           85.00    
     15      1     25     16       86.50           50.00           84.00    
     16      1     25     17       85.50           50.00           83.00    
     17      1     25     18       84.50           50.00           82.00    
     18      1     25     19       83.50           50.00           81.00    
     19      1     25     20       82.50           50.00           80.00    
     20      1     25     21       81.50           50.00           79.00    
     21      1     25     22       80.50           50.00           78.00    
     22      1     25     23       79.50           50.00           77.00    
     23      1     25     24       78.50           50.00           76.00    
     24      1     25     25       77.50           50.00           75.00    
     25      1     25     26       77.40           50.00           74.90    
     26      1     25     27       77.30           50.00           74.80    
     27      1     25     28       77.20           50.00           74.70    
     28      1     25     29       77.10           50.00           74.60    
     29      1     25     30       77.00           50.00           74.50    
     30      1     25     31       76.90           50.00           74.40    
     31      1     25     32       76.80           50.00           74.30    
     32      1     25     33       76.70           50.00           74.20    
     33      1     25     34       76.60           50.00           74.10    
     34      1     25     35       76.50           50.00           74.00    
     35      1     25     36       76.40           50.00           73.90    
     36      1     25     37       76.30           50.00           73.80    
     37      1     25     38       76.20           50.00           73.70    
     38      1     25     39       76.10           50.00           73.60    
     39      1     25     40       76.00           50.00           73.50    
     40      1     25     41       75.90           50.00           73.40    
     41      1     25     42       75.80           50.00           73.30    
     42      1     25     43       75.70           50.00           73.20    
     43      1     25     44       75.60           50.00           73.10    
     44      1     25     45       75.50           50.00           73.00    
     45      1     25     46       75.40           50.00           72.90    
     46      1     25     47       75.30           50.00           72.80    
     47      1     25     48       75.20           50.00           72.70    
     48      1     25     49       75.10           50.00           72.60    
     49      1     25     50       75.00           50.00           72.50    

     49 RIVER REACHES



                         ET SURFACE
 READING ON UNIT   22 WITH FORMAT: (50E15.6)           



            EVAPOTRANSPIRATION RATE
 READING ON UNIT   22 WITH FORMAT: (50E15.6)           

         EXTINCTION DEPTH =   10.0000    



                           RECHARGE
 READING ON UNIT   19 WITH FORMAT: (50E15.6)           
 
 SOLVING FOR HEAD 

 OUTPUT CONTROL FOR STRESS PERIOD    1   TIME STEP    1
    SAVE HEAD FOR ALL LAYERS
    SAVE DRAWDOWN FOR ALL LAYERS
    SAVE BUDGET
    PRINT HEAD FOR ALL LAYERS
    PRINT BUDGET
 UBDSV2 SAVING "   CONSTANT HEAD" ON UNIT  53 AT TIME STEP  1, STRESS PERIOD   1
 UBDSV1 SAVING "FLOW RIGHT FACE " ON UNIT  53 AT TIME STEP  1, STRESS PERIOD   1
 UBDSV1 SAVING "FLOW FRONT FACE " ON UNIT  53 AT TIME STEP  1, STRESS PERIOD   1
 UBDSV1 SAVING "FLOW LOWER FACE " ON UNIT  53 AT TIME STEP  1, STRESS PERIOD   1
 UBDSV4 SAVING "   RIVER LEAKAGE" ON UNIT  53 AT TIME STEP  1, STRESS PERIOD   1
 UBDSV3 SAVING "              ET" ON UNIT  53 AT TIME STEP  1, STRESS PERIOD   1
 UBDSV3 SAVING "        RECHARGE" ON UNIT  53 AT TIME STEP  1, STRESS PERIOD   1
1
              HEAD IN LAYER   1 AT END OF TIME STEP   1 IN STRESS PERIOD    1
  ---------------------------------------------------------------------------

            1           2           3           4           5           6           7           8           9          10
           11          12          13          14          15          16          17          18          19          20
           21          22          23          24          25          26          27          28          29          30
           31          32          33          34          35          36          37          38          39          40
           41          42          43          44          45          46          47          48          49          50
 ........................................................................................................................
   1  -1000.0     -1000.0     -1000.0     -1000.0     -1000.0     -1000.0     -1000.0     -1000.0     -1000.0     -1000.0    
      -1000.0     -1000.0     -1000.0     -1000.0     -1000.0     -1000.0     -1000.0     -1000.0     -1000.0     -1000.0    
      -1000.0     -1000.0     -1000.0     -1000.0     -1000.0     -1000.0     -1000.0     -1000.0     -1000.0     -1000.0    
      -1000.0     -1000.0     -1000.0     -1000.0     -1000.0     -1000.0     -1000.0     -1000.0     -1000.0     -1000.0    
      -1000.0     -1000.0     -1000.0     -1000.0     -1000.0     -1000.0     -1000.0     -1000.0     -1000.0       70.00    
   2  -1000.0     -1000.0     -1000.0     -1000.0     -1000.0       74.37       74.25       74.05       73.83       73.58    
        73.41       73.21       72.99       72.76       72.52       72.28       72.07       71.88       71.71       71.56    
        71.42       71.29       71.18       71.07       70.97       70.88       70.79       70.71       70.63       70.55    
        70.48       70.41       70.35       70.29       70.24       70.19       70.14       70.11       70.07       70.05    
        70.02       70.01       69.99       69.99       69.98       69.98       69.98       69.99       69.99       70.00    
   3  -1000.0     -1000.0     -1000.0     -1000.0       74.56       74.43       74.25       74.04       73.79       73.61    
        73.41       73.20       72.97       72.74       72.50       72.26       72.04       71.85       71.69       71.54    
        71.40       71.28       71.17       71.06       70.97       70.87       70.79       70.70       70.62       70.55    
        70.47       70.41       70.34       70.28       70.23       70.18       70.14       70.10       70.07       70.04    
        70.02       70.00       69.99       69.98       69.98       69.98       69.98       69.99       69.99       70.00    
   4  -1000.0     -1000.0     -1000.0       74.76       74.63       74.46       74.26       74.01       73.82       73.62    
        73.40       73.17       72.93       72.69       72.45       72.20       71.99       71.81       71.65       71.51    
        71.38       71.26       71.15       71.05       70.95       70.86       70.78       70.69       70.61       70.54    
        70.46       70.40       70.33       70.27       70.22       70.17       70.13       70.09       70.06       70.03    
        70.01       69.99       69.98       69.97       69.97       69.97       69.98       69.98       69.99       70.00    
   5  -1000.0     -1000.0       74.95       74.83       74.66       74.47       74.24       74.05       73.84       73.62    
        73.38       73.13       72.87       72.61       72.36       72.12       71.91       71.74       71.59       71.46    
        71.34       71.23       71.12       71.03       70.94       70.85       70.76       70.68       70.60       70.52    
        70.45       70.38       70.32       70.26       70.20       70.15       70.11       70.07       70.04       70.01    
        69.99       69.98       69.97       69.96       69.96       69.96       69.97       69.98       69.99       70.00    
   6  -1000.0       75.09       75.00       74.86       74.69       74.47       74.29       74.08       73.85       73.60    
        73.33       73.06       72.78       72.51       72.25       72.00       71.81       71.64       71.51       71.39    
        71.28       71.18       71.09       71.00       70.91       70.83       70.74       70.66       70.58       70.51    
        70.43       70.36       70.30       70.24       70.18       70.13       70.08       70.05       70.01       69.99    
        69.97       69.95       69.95       69.94       69.94       69.95       69.96       69.97       69.99       70.00    
   7  -1000.0       75.11       75.03       74.90       74.71       74.53       74.33       74.10       73.85       73.57    
        73.27       72.96       72.65       72.36       72.08       71.84       71.66       71.52       71.41       71.31    
        71.22       71.14       71.05       70.97       70.89       70.81       70.72       70.64       70.56       70.48    
        70.41       70.34       70.27       70.21       70.15       70.10       70.05       70.02       69.98       69.96    
        69.94       69.93       69.92       69.92       69.92       69.93       69.95       69.96       69.98       70.00    
   8  -1000.0       75.14       75.07       74.92       74.77       74.59       74.37       74.13       73.84       73.53    
        73.20       72.84       72.48       72.15       71.86       71.63       71.47       71.36       71.29       71.22    
        71.16       71.09       71.02       70.94       70.86       70.78       70.70       70.62       70.54       70.46    
        70.38       70.31       70.24       70.17       70.11       70.06       70.02       69.98       69.95       69.92    
        69.90       69.89       69.89       69.89       69.90       69.91       69.93       69.95       69.98       70.00    
   9  -1000.0       75.19       75.11       74.99       74.84       74.65       74.42       74.15       73.84       73.49    
        73.11       72.69       72.27       71.87       71.55       71.33       71.23       71.18       71.15       71.13    
        71.09       71.04       70.98       70.91       70.84       70.76       70.68       70.59       70.51       70.43    
        70.35       70.27       70.20       70.13       70.07       70.02       69.97       69.93       69.90       69.88    
        69.86       69.85       69.85       69.86       69.87       69.89       69.91       69.94       69.97       70.00    
  10  -1000.0       75.26       75.19       75.08       74.92       74.72       74.48       74.19       73.85       73.46    
        73.01       72.52       71.99       71.48       71.10       70.93       70.92       70.97       71.01       71.04    
        71.03       71.00       70.96       70.89       70.82       70.74       70.65       70.57       70.48       70.39    
        70.31       70.23       70.15       70.08       70.02       69.97       69.92       69.88       69.85       69.82    
        69.81       69.80       69.81       69.82       69.83       69.86       69.89       69.92       69.96       70.00    
  11  -1000.0       75.34       75.28       75.17       75.02       74.81       74.56       74.26       73.89       73.45    
        72.94       72.34       71.66       70.95       70.38       70.38       70.57       70.76       70.89       70.98    
        71.00       70.98       70.94       70.88       70.81       70.72       70.63       70.54       70.45       70.35    
        70.27       70.18       70.10       70.03       69.96       69.90       69.86       69.81       69.78       69.76    
        69.75       69.74       69.75       69.77       69.79       69.82       69.86       69.90       69.95       70.00    
  12  -1000.0       75.44       75.39       75.29       75.13       74.93       74.67       74.35       73.96       73.49    
        72.92       72.22       71.33       70.22       69.05       69.63       70.21       70.59       70.83       70.96    
        71.00       70.99       70.95       70.88       70.80       70.71       70.61       70.51       70.41       70.31    
        70.22       70.13       70.04       69.96       69.90       69.83       69.78       69.74       69.71       69.69    
        69.68       69.68       69.69       69.71       69.74       69.78       69.83       69.88       69.94       70.00    
  13  -1000.0       75.58       75.53       75.42       75.27       75.07       74.81       74.48       74.09       73.60    
        73.01       72.24       71.18       69.48       65.84       68.88       70.03       70.58       70.86       71.01    
        71.05       71.03       70.98       70.90       70.81       70.70       70.59       70.48       70.37       70.26    
        70.16       70.06       69.97       69.89       69.82       69.75       69.70       69.66       69.62       69.60    
        69.59       69.60       69.61       69.64       69.68       69.73       69.79       69.85       69.93       70.00    
  14  -1000.0       75.74       75.69       75.59       75.44       75.23       74.98       74.66       74.27       73.80    
        73.22       72.51       71.62       70.50       69.33       69.89       70.45       70.82       71.03       71.14    
        71.15       71.11       71.03       70.93       70.82       70.70       70.57       70.45       70.32       70.21    
        70.10       69.99       69.89       69.81       69.73       69.66       69.60       69.56       69.52       69.50    
        69.50       69.50       69.52       69.56       69.60       69.66       69.74       69.82       69.91       70.00    
  15  -1000.0       75.92       75.87       75.77       75.63       75.43       75.18       74.87       74.50       74.06    
        73.54       72.93       72.24       71.51       70.93       70.90       71.06       71.21       71.31       71.35    
        71.30       71.22       71.11       70.98       70.84       70.69       70.55       70.41       70.27       70.14    
        70.02       69.91       69.80       69.71       69.63       69.55       69.49       69.45       69.41       69.39    
        69.38       69.39       69.42       69.46       69.52       69.59       69.68       69.78       69.89       70.00    
  16  -1000.0       76.12       76.07       75.98       75.84       75.65       75.41       75.12       74.78       74.38    
        73.92       73.40       72.86       72.32       71.91       71.71       71.66       71.65       71.64       71.60    
        71.49       71.35       71.20       71.03       70.86       70.69       70.52       70.36       70.21       70.07    
        69.93       69.81       69.70       69.60       69.51       69.43       69.37       69.32       69.28       69.26    
        69.26       69.27       69.30       69.34       69.41       69.50       69.60       69.72       69.86       70.00    
  17  -1000.0       76.34       76.30       76.21       76.07       75.90       75.67       75.40       75.08       74.72    
        74.31       73.87       73.42       72.99       72.63       72.37       72.21       72.10       72.00       71.89    
        71.71       71.51       71.30       71.08       70.87       70.67       70.48       70.30       70.13       69.97    
        69.83       69.70       69.58       69.48       69.38       69.30       69.23       69.18       69.14       69.11    
        69.11       69.12       69.15       69.21       69.28       69.39       69.51       69.66       69.82       70.00    
  18  -1000.0       76.58       76.54       76.45       76.33       76.16       75.95       75.70       75.40       75.07    
        74.71       74.32       73.93       73.55       73.21       72.92       72.70       72.53       72.36       72.19    
        71.93       71.66       71.39       71.13       70.88       70.64       70.42       70.22       70.03       69.87    
        69.71       69.57       69.45       69.33       69.23       69.15       69.07       69.01       68.97       68.95    
        68.94       68.95       68.99       69.04       69.13       69.24       69.39       69.57       69.78       70.00    
  19  -1000.0       76.83       76.79       76.71       76.59       76.44       76.24       76.00       75.73       75.43    
        75.09       74.74       74.39       74.04       73.71       73.41       73.15       72.94       72.73       72.51    
        72.17       71.82       71.48       71.15       70.86       70.58       70.34       70.11       69.91       69.73    
        69.57       69.42       69.29       69.17       69.07       68.98       68.90       68.83       68.79       68.76    
        68.75       68.76       68.79       68.85       68.94       69.07       69.24       69.45       69.71       70.00    
  20  -1000.0       77.10       77.06       76.99       76.87       76.72       76.54       76.32       76.06       75.78    
        75.47       75.14       74.81       74.47       74.15       73.83       73.57       73.33       73.12       72.85    
        72.40       71.95       71.54       71.15       70.80       70.49       70.22       69.98       69.77       69.57    
        69.40       69.25       69.12       68.99       68.88       68.79       68.70       68.63       68.58       68.54    
        68.53       68.53       68.56       68.62       68.71       68.84       69.03       69.28       69.61       70.00    
  21  -1000.0       77.38       77.34       77.27       77.16       77.02       76.84       76.63       76.39       76.13    
        75.84       75.52       75.20       74.87       74.54       74.22       73.93       73.71       73.58       73.26    
        72.61       72.06       71.55       71.10       70.69       70.35       70.06       69.81       69.58       69.38    
        69.21       69.05       68.91       68.79       68.68       68.58       68.49       68.41       68.35       68.31    
        68.28       68.27       68.29       68.34       68.42       68.55       68.74       69.03       69.44       70.00    
  22  -1000.0       77.67       77.63       77.56       77.46       77.32       77.16       76.96       76.73       76.47    
        76.19       75.89       75.57       75.24       74.90       74.56       74.25       73.98       73.81       73.45    
        72.73       72.09       71.51       70.98       70.50       70.15       69.85       69.59       69.36       69.15    
        68.98       68.83       68.69       68.56       68.45       68.35       68.25       68.17       68.10       68.05    
        68.01       67.98       67.98       68.01       68.07       68.17       68.35       68.66       69.17       70.00    
  23  -1000.0       77.96       77.93       77.86       77.76       77.63       77.47       77.28       77.06       76.81    
        76.54       76.24       75.92       75.58       75.23       74.86       74.51       74.16       73.83       73.42    
        72.73       72.05       71.39       70.79       70.28       69.94       69.60       69.31       69.08       68.88    
        68.71       68.57       68.43       68.31       68.20       68.09       68.00       67.91       67.83       67.76    
        67.70       67.66       67.63       67.64       67.67       67.77       67.96       68.31       68.93       70.00    
  24  -1000.0       78.26       78.23       78.17       78.07       77.94       77.79       77.60       77.39       77.15    
        76.88       76.58       76.26       75.92       75.55       75.15       74.75       74.34       73.92       73.45    
        72.72       71.98       71.28       70.65       70.18       69.94       69.48       69.12       68.86       68.65    
        68.48       68.34       68.21       68.09       67.97       67.87       67.77       67.67       67.59       67.51    
        67.44       67.39       67.35       67.34       67.37       67.47       67.67       68.06       68.77       70.00    
  25  -1000.0       78.57       78.54       78.47       78.38       78.26       78.11       77.93       77.72       77.48    
        77.21       76.92       76.60       76.25       75.86       75.44       75.00       74.53       74.04       73.54    
        72.83       72.07       71.34       70.72       70.35       70.61       69.63       69.16       68.86       68.65    
        68.48       68.34       68.21       68.09       67.98       67.87       67.77       67.67       67.58       67.50    
        67.43       67.37       67.33       67.31       67.34       67.44       67.66       68.09       68.83       70.00    
  26  -1000.0       78.56       78.53       78.47       78.38       78.26       78.11       77.93       77.73       77.49    
        77.23       76.93       76.61       76.25       75.85       75.41       74.93       74.44       73.93       73.41    
        72.47       71.62       70.85       70.17       69.67       69.40       68.92       68.55       68.28       68.07    
        67.90       67.75       67.62       67.49       67.38       67.27       67.16       67.06       66.97       66.88    
        66.81       66.75       66.70       66.69       66.72       66.83       67.07       67.54       68.42       70.00    
  27  -1000.0       78.56       78.53       78.47       78.38       78.26       78.12       77.94       77.74       77.51    
        77.24       76.95       76.63       76.27       75.87       75.43       74.97       74.47       73.96       73.46    
        72.50       71.65       70.87       70.17       69.60       69.20       68.83       68.53       68.28       68.08    
        67.90       67.75       67.61       67.49       67.37       67.26       67.15       67.05       66.96       66.87    
        66.80       66.74       66.70       66.69       66.72       66.84       67.09       67.57       68.44       70.00    
  28  -1000.0       78.56       78.53       78.47       78.38       78.27       78.13       77.95       77.75       77.52    
        77.26       76.97       76.65       76.30       75.90       75.47       75.02       74.56       74.08       73.59    
        72.74       71.94       71.19       70.52       69.94       69.50       69.15       68.87       68.62       68.42    
        68.24       68.09       67.94       67.81       67.69       67.57       67.46       67.36       67.27       67.19    
        67.12       67.07       67.04       67.04       67.09       67.21       67.45       67.90       68.67       70.00    
  29  -1000.0       78.56       78.53       78.48       78.39       78.28       78.14       77.97       77.77       77.54    
        77.29       77.00       76.68       76.33       75.95       75.53       75.10       74.65       74.21       73.76    
        73.03       72.34       71.68       71.08       70.54       70.07       69.71       69.41       69.15       68.94    
        68.74       68.57       68.42       68.27       68.14       68.02       67.91       67.81       67.73       67.65    
        67.59       67.55       67.54       67.56       67.62       67.76       68.01       68.42       69.06       70.00    
  30  -1000.0       78.57       78.54       78.48       78.40       78.29       78.15       77.98       77.79       77.57    
        77.31       77.03       76.72       76.38       76.00       75.59       75.18       74.76       74.33       73.91    
        73.28       72.67       72.08       71.54       71.04       70.59       70.23       69.92       69.66       69.42    
        69.22       69.03       68.86       68.71       68.57       68.44       68.33       68.23       68.15       68.08    
        68.02       68.00       68.00       68.03       68.11       68.25       68.48       68.82       69.32       70.00    
  31  -1000.0       78.58       78.55       78.49       78.41       78.30       78.17       78.00       77.81       77.59    
        77.34       77.07       76.76       76.42       76.06       75.66       75.26       74.86       74.45       74.05    
        73.49       72.94       72.42       71.92       71.47       71.05       70.69       70.38       70.10       69.86    
        69.64       69.44       69.26       69.10       68.96       68.83       68.71       68.61       68.52       68.46    
        68.41       68.39       68.39       68.43       68.52       68.65       68.86       69.14       69.51       70.00    
  32  -1000.0       78.59       78.56       78.51       78.43       78.32       78.18       78.02       77.83       77.62    
        77.38       77.10       76.80       76.48       76.12       75.73       75.34       74.95       74.57       74.18    
        73.68       73.18       72.70       72.25       71.82       71.43       71.09       70.77       70.49       70.24    
        70.02       69.81       69.63       69.46       69.31       69.17       69.05       68.95       68.87       68.80    
        68.75       68.73       68.73       68.77       68.85       68.97       69.14       69.37       69.66       70.00    
  33  -1000.0       78.60       78.57       78.52       78.44       78.34       78.20       78.04       77.86       77.65    
        77.41       77.14       76.85       76.53       76.18       75.80       75.43       75.05       74.68       74.31    
        73.84       73.39       72.95       72.53       72.13       71.76       71.42       71.11       70.84       70.58    
        70.35       70.14       69.95       69.78       69.63       69.49       69.36       69.26       69.17       69.10    
        69.05       69.03       69.03       69.06       69.12       69.22       69.36       69.54       69.76       70.00    
  34  -1000.0       78.61       78.59       78.53       78.46       78.35       78.22       78.07       77.88       77.68    
        77.44       77.18       76.89       76.58       76.24       75.87       75.50       75.14       74.78       74.42    
        73.99       73.57       73.16       72.76       72.39       72.04       71.71       71.41       71.14       70.88    
        70.65       70.44       70.24       70.07       69.91       69.77       69.64       69.54       69.44       69.37    
        69.32       69.29       69.28       69.30       69.35       69.42       69.53       69.67       69.83       70.00    
  35  -1000.0       78.63       78.60       78.55       78.47       78.37       78.24       78.09       77.91       77.70    
        77.47       77.22       76.94       76.63       76.29       75.94       75.58       75.23       74.87       74.53    
        74.13       73.73       73.34       72.97       72.62       72.28       71.96       71.67       71.40       71.15    
        70.92       70.70       70.51       70.33       70.17       70.02       69.89       69.78       69.69       69.61    
        69.55       69.51       69.50       69.50       69.53       69.58       69.66       69.76       69.88       70.00    
  36  -1000.0       78.64       78.62       78.56       78.49       78.39       78.26       78.11       77.93       77.73    
        77.51       77.25       76.98       76.68       76.35       76.00       75.65       75.30       74.96       74.63    
        74.25       73.87       73.51       73.15       72.81       72.49       72.18       71.90       71.63       71.38    
        71.15       70.94       70.74       70.56       70.40       70.25       70.12       70.00       69.90       69.82    
        69.76       69.71       69.68       69.67       69.69       69.72       69.77       69.84       69.91       70.00    
  37  -1000.0       78.66       78.63       78.58       78.50       78.40       78.28       78.13       77.96       77.76    
        77.54       77.29       77.02       76.72       76.40       76.06       75.72       75.38       75.05       74.72    
        74.35       74.00       73.65       73.31       72.98       72.67       72.38       72.10       71.84       71.59    
        71.36       71.15       70.95       70.77       70.60       70.45       70.32       70.20       70.10       70.01    
        69.94       69.88       69.84       69.82       69.82       69.83       69.86       69.90       69.95       70.00    
  38  -1000.0       78.67       78.64       78.59       78.52       78.42       78.30       78.15       77.98       77.78    
        77.57       77.32       77.06       76.76       76.45       76.11       75.78       75.45       75.12       74.80    
        74.45       74.11       73.77       73.45       73.13       72.83       72.55       72.27       72.01       71.77    
        71.54       71.33       71.14       70.95       70.79       70.63       70.50       70.37       70.26       70.17    
        70.09       70.03       69.98       69.95       69.93       69.92       69.93       69.95       69.97       70.00    
  39  -1000.0       78.68       78.66       78.61       78.53       78.43       78.31       78.17       78.00       77.81    
        77.59       77.35       77.09       76.80       76.49       76.16       75.83       75.51       75.19       74.87    
        74.54       74.21       73.88       73.57       73.27       72.97       72.69       72.43       72.17       71.93    
        71.71       71.50       71.30       71.12       70.95       70.79       70.65       70.52       70.41       70.31    
        70.23       70.16       70.10       70.05       70.02       70.00       69.99       69.99       69.99       70.00    
  40  -1000.0       78.70       78.67       78.62       78.54       78.45       78.33       78.18       78.02       77.83    
        77.61       77.38       77.12       76.84       76.54       76.21       75.88       75.56       75.25       74.94    
        74.61       74.30       73.98       73.68       73.38       73.10       72.82       72.56       72.31       72.07    
        71.85       71.64       71.44       71.26       71.09       70.93       70.79       70.66       70.54       70.44    
        70.35       70.27       70.20       70.15       70.10       70.07       70.04       70.02       70.01       70.00    
  41  -1000.0       78.71       78.68       78.63       78.55       78.46       78.34       78.19       78.03       77.84    
        77.63       77.40       77.15       76.87       76.57       76.25       75.93       75.61       75.30       75.00    
        74.68       74.37       74.07       73.77       73.48       73.20       72.93       72.68       72.43       72.20    
        71.97       71.76       71.57       71.38       71.21       71.05       70.91       70.77       70.65       70.54    
        70.45       70.36       70.29       70.22       70.17       70.12       70.09       70.05       70.03       70.00    
  42  -1000.0       78.74       78.69       78.64       78.56       78.46       78.34       78.20       78.04       77.86    
        77.65       77.42       77.17       76.90       76.60       76.28       75.97       75.66       75.35       75.05    
        74.74       74.44       74.14       73.85       73.57       73.29       73.03       72.77       72.53       72.30    
        72.08       71.87       71.68       71.49       71.32       71.16       71.01       70.87       70.75       70.64    
        70.53       70.44       70.36       70.29       70.23       70.17       70.12       70.08       70.04       70.00    
  43  -1000.0       78.77       78.73       78.64       78.56       78.46       78.34       78.20       78.04       77.86    
        77.66       77.44       77.19       76.92       76.63       76.31       76.00       75.70       75.39       75.10    
        74.79       74.50       74.20       73.92       73.64       73.37       73.11       72.86       72.62       72.39    
        72.17       71.96       71.77       71.58       71.41       71.25       71.10       70.96       70.83       70.71    
        70.61       70.51       70.42       70.35       70.28       70.21       70.15       70.10       70.05       70.00    
  44  -1000.0       78.80       78.76       78.68       78.56       78.46       78.34       78.20       78.04       77.87    
        77.67       77.45       77.20       76.94       76.65       76.34       76.03       75.73       75.43       75.13    
        74.84       74.54       74.26       73.98       73.70       73.44       73.18       72.93       72.69       72.47    
        72.25       72.04       71.85       71.66       71.49       71.32       71.17       71.03       70.90       70.78    
        70.67       70.57       70.48       70.39       70.31       70.24       70.18       70.12       70.06       70.00    
  45  -1000.0       78.82       78.77       78.69       78.59       78.45       78.33       78.19       78.04       77.87    
        77.67       77.45       77.21       76.95       76.67       76.36       76.05       75.75       75.46       75.17    
        74.87       74.58       74.30       74.02       73.75       73.49       73.23       72.99       72.75       72.53    
        72.31       72.10       71.91       71.72       71.55       71.39       71.23       71.09       70.96       70.83    
        70.72       70.61       70.52       70.43       70.35       70.27       70.20       70.13       70.06       70.00    
  46  -1000.0     -1000.0       78.76       78.70       78.60       78.47       78.31       78.18       78.03       77.86    
        77.67       77.46       77.22       76.96       76.68       76.37       76.07       75.77       75.48       75.19    
        74.90       74.61       74.33       74.06       73.79       73.53       73.28       73.04       72.80       72.58    
        72.36       72.15       71.96       71.77       71.60       71.43       71.28       71.14       71.00       70.87    
        70.76       70.65       70.55       70.46       70.37       70.29       70.21       70.14       70.07       70.00    
  47  -1000.0     -1000.0     -1000.0       78.67       78.59       78.48       78.33       78.16       78.01       77.85    
        77.66       77.45       77.22       76.97       76.69       76.39       76.09       75.79       75.50       75.21    
        74.92       74.64       74.36       74.09       73.82       73.56       73.31       73.07       72.84       72.61    
        72.40       72.19       72.00       71.81       71.63       71.47       71.31       71.17       71.03       70.91    
        70.79       70.68       70.57       70.48       70.39       70.31       70.23       70.15       70.07       70.00    
  48  -1000.0     -1000.0     -1000.0     -1000.0       78.56       78.47       78.34       78.18       77.98       77.83    
        77.65       77.45       77.22       76.97       76.69       76.39       76.09       75.80       75.51       75.22    
        74.93       74.65       74.38       74.11       73.84       73.58       73.33       73.09       72.86       72.63    
        72.42       72.22       72.02       71.83       71.66       71.49       71.34       71.19       71.05       70.93    
        70.81       70.69       70.59       70.49       70.40       70.32       70.23       70.15       70.08       70.00    
  49  -1000.0     -1000.0     -1000.0     -1000.0     -1000.0       78.43       78.34       78.19       78.01       77.80    
        77.64       77.45       77.22       76.97       76.70       76.40       76.10       75.80       75.51       75.23    
        74.94       74.66       74.38       74.11       73.85       73.59       73.34       73.10       72.87       72.65    
        72.43       72.23       72.03       71.85       71.67       71.51       71.35       71.20       71.06       70.94    
        70.82       70.70       70.60       70.50       70.41       70.32       70.24       70.16       70.08       70.00    
  50  -1000.0     -1000.0     -1000.0     -1000.0     -1000.0     -1000.0     -1000.0     -1000.0     -1000.0     -1000.0    
      -1000.0     -1000.0     -1000.0     -1000.0     -1000.0     -1000.0     -1000.0     -1000.0     -1000.0     -1000.0    
      -1000.0     -1000.0     -1000.0     -1000.0     -1000.0     -1000.0     -1000.0     -1000.0     -1000.0     -1000.0    
      -1000.0     -1000.0     -1000.0     -1000.0     -1000.0     -1000.0     -1000.0     -1000.0     -1000.0     -1000.0    
      -1000.0     -1000.0     -1000.0     -1000.0     -1000.0     -1000.0     -1000.0     -1000.0     -1000.0       70.00    
1
              HEAD IN LAYER   2 AT END OF TIME STEP   1 IN STRESS PERIOD    1
  ---------------------------------------------------------------------------

            1           2           3           4           5           6           7           8           9          10
           11          12          13          14          15          16          17          18          19          20
           21          22          23          24          25          26          27          28          29          30
           31          32          33          34          35          36          37          38          39          40
           41          42          43          44          45          46          47          48          49          50
 ........................................................................................................................
   1  -1000.0     -1000.0     -1000.0     -1000.0     -1000.0     -1000.0     -1000.0     -1000.0     -1000.0     -1000.0    
      -1000.0     -1000.0     -1000.0     -1000.0     -1000.0     -1000.0     -1000.0     -1000.0     -1000.0     -1000.0    
      -1000.0     -1000.0     -1000.0     -1000.0     -1000.0     -1000.0     -1000.0     -1000.0     -1000.0     -1000.0    
      -1000.0     -1000.0     -1000.0     -1000.0     -1000.0     -1000.0     -1000.0     -1000.0     -1000.0     -1000.0    
      -1000.0     -1000.0     -1000.0     -1000.0     -1000.0     -1000.0     -1000.0     -1000.0     -1000.0       70.00    
   2  -1000.0     -1000.0     -1000.0     -1000.0     -1000.0     -1000.0     -1000.0       74.05       73.83       73.58    
        73.41       73.21       72.99       72.76       72.52       72.28       72.07       71.88       71.71       71.56    
        71.42       71.30       71.19       71.08       70.99       70.90       70.81       70.73       70.65       70.58    
        70.51       70.44       70.38       70.32       70.27       70.22       70.17       70.13       70.10       70.07    
        70.04       70.02       70.01       70.00       69.99       69.99       69.99       69.99       70.00       70.00    
   3  -1000.0     -1000.0     -1000.0     -1000.0     -1000.0     -1000.0       74.25       74.04       73.79       73.61    
        73.41       73.20       72.97       72.73       72.50       72.26       72.04       71.85       71.69       71.54    
        71.41       71.29       71.18       71.08       70.98       70.89       70.81       70.73       70.65       70.58    
        70.50       70.44       70.37       70.31       70.26       70.21       70.17       70.13       70.09       70.06    
        70.04       70.02       70.01       70.00       69.99       69.99       69.99       69.99       70.00       70.00    
   4  -1000.0     -1000.0     -1000.0     -1000.0     -1000.0       74.46       74.26       74.01       73.82       73.62    
        73.40       73.17       72.93       72.69       72.45       72.20       71.99       71.81       71.65       71.51    
        71.38       71.27       71.16       71.06       70.97       70.88       70.80       70.72       70.64       70.57    
        70.50       70.43       70.37       70.31       70.25       70.20       70.16       70.12       70.08       70.05    
        70.03       70.01       70.00       69.99       69.98       69.98       69.98       69.99       69.99       70.00    
   5  -1000.0     -1000.0     -1000.0     -1000.0       74.66       74.47       74.24       74.05       73.84       73.62    
        73.38       73.13       72.87       72.61       72.36       72.12       71.91       71.74       71.59       71.46    
        71.34       71.23       71.14       71.04       70.96       70.87       70.79       70.71       70.63       70.56    
        70.49       70.42       70.35       70.29       70.24       70.18       70.14       70.10       70.06       70.04    
        70.01       70.00       69.98       69.98       69.97       69.97       69.98       69.98       69.99       70.00    
   6  -1000.0     -1000.0     -1000.0       74.86       74.69       74.47       74.29       74.08       73.85       73.60    
        73.33       73.06       72.78       72.51       72.25       72.00       71.81       71.64       71.51       71.39    
        71.29       71.19       71.11       71.02       70.94       70.86       70.78       70.70       70.62       70.54    
        70.47       70.40       70.33       70.27       70.22       70.16       70.12       70.08       70.04       70.01    
        69.99       69.98       69.97       69.96       69.96       69.96       69.97       69.98       69.99       70.00    
   7  -1000.0     -1000.0       75.03       74.90       74.71       74.53       74.33       74.10       73.85       73.57    
        73.27       72.96       72.65       72.36       72.08       71.84       71.66       71.52       71.41       71.31    
        71.23       71.15       71.07       71.00       70.92       70.84       70.76       70.68       70.60       70.53    
        70.45       70.38       70.31       70.25       70.19       70.14       70.09       70.05       70.01       69.99    
        69.97       69.95       69.94       69.94       69.94       69.95       69.96       69.97       69.98       70.00    
   8  -1000.0       75.14       75.07       74.92       74.77       74.59       74.37       74.13       73.84       73.53    
        73.20       72.84       72.48       72.15       71.86       71.63       71.47       71.36       71.29       71.22    
        71.16       71.10       71.04       70.97       70.90       70.82       70.74       70.67       70.59       70.51    
        70.43       70.36       70.29       70.22       70.16       70.10       70.06       70.01       69.98       69.95    
        69.93       69.92       69.91       69.91       69.92       69.93       69.94       69.96       69.98       70.00    
   9  -1000.0       75.19       75.11       74.99       74.84       74.65       74.42       74.15       73.84       73.49    
        73.11       72.69       72.27       71.87       71.55       71.33       71.23       71.18       71.15       71.13    
        71.10       71.06       71.01       70.95       70.88       70.81       70.73       70.65       70.57       70.49    
        70.41       70.33       70.26       70.19       70.12       70.07       70.02       69.97       69.94       69.91    
        69.89       69.88       69.88       69.88       69.89       69.91       69.93       69.95       69.97       70.00    
  10  -1000.0       75.26       75.19       75.08       74.92       74.72       74.48       74.19       73.85       73.46    
        73.01       72.52       71.99       71.48       71.09       70.93       70.92       70.97       71.01       71.04    
        71.05       71.03       70.99       70.94       70.87       70.80       70.72       70.63       70.55       70.46    
        70.38       70.30       70.22       70.15       70.08       70.02       69.97       69.92       69.89       69.86    
        69.84       69.84       69.84       69.84       69.86       69.88       69.91       69.93       69.97       70.00    
  11  -1000.0       75.34       75.28       75.17       75.02       74.81       74.56       74.26       73.89       73.45    
        72.94       72.34       71.66       70.95       70.38       70.38       70.57       70.76       70.89       70.98    
        71.01       71.01       70.98       70.93       70.87       70.79       70.71       70.62       70.53       70.44    
        70.35       70.26       70.18       70.10       70.03       69.97       69.91       69.86       69.83       69.80    
        69.79       69.78       69.79       69.80       69.82       69.85       69.88       69.92       69.96       70.00    
  12  -1000.0       75.44       75.39       75.29       75.13       74.93       74.67       74.35       73.96       73.49    
        72.92       72.22       71.33       70.22       69.05       69.63       70.21       70.59       70.83       70.96    
        71.02       71.02       71.00       70.95       70.88       70.80       70.71       70.61       70.51       70.41    
        70.32       70.22       70.13       70.05       69.97       69.90       69.85       69.80       69.76       69.74    
        69.72       69.72       69.73       69.75       69.78       69.81       69.85       69.90       69.95       70.00    
  13  -1000.0       75.58       75.53       75.42       75.27       75.07       74.81       74.48       74.09       73.60    
        73.01       72.24       71.18       69.48       65.85       68.88       70.03       70.58       70.86       71.01    
        71.07       71.07       71.04       70.98       70.90       70.81       70.71       70.60       70.49       70.39    
        70.28       70.18       70.08       69.99       69.91       69.83       69.77       69.72       69.68       69.66    
        69.65       69.65       69.66       69.69       69.72       69.77       69.82       69.88       69.94       70.00    
  14  -1000.0       75.74       75.69       75.59       75.44       75.23       74.98       74.66       74.27       73.80    
        73.22       72.51       71.62       70.50       69.33       69.89       70.45       70.82       71.03       71.14    
        71.18       71.16       71.11       71.03       70.93       70.83       70.71       70.59       70.48       70.36    
        70.24       70.13       70.02       69.92       69.83       69.75       69.68       69.63       69.59       69.57    
        69.56       69.56       69.59       69.62       69.66       69.72       69.78       69.85       69.92       70.00    
  15  -1000.0       75.92       75.87       75.77       75.63       75.43       75.18       74.87       74.50       74.06    
        73.54       72.93       72.24       71.51       70.93       70.90       71.06       71.21       71.31       71.35    
        71.33       71.28       71.20       71.10       70.98       70.85       70.72       70.59       70.46       70.33    
        70.20       70.08       69.96       69.85       69.75       69.66       69.59       69.53       69.48       69.46    
        69.46       69.47       69.50       69.54       69.60       69.66       69.74       69.82       69.91       70.00    
  16  -1000.0       76.12       76.07       75.98       75.84       75.65       75.41       75.12       74.78       74.38    
        73.92       73.40       72.86       72.32       71.91       71.71       71.66       71.65       71.64       71.60    
        71.53       71.43       71.31       71.18       71.03       70.88       70.73       70.58       70.44       70.29    
        70.15       70.02       69.89       69.77       69.66       69.56       69.48       69.41       69.37       69.34    
        69.34       69.36       69.40       69.45       69.52       69.60       69.69       69.79       69.89       70.00    
  17  -1000.0       76.34       76.30       76.21       76.07       75.90       75.67       75.40       75.08       74.72    
        74.31       73.87       73.42       72.99       72.63       72.37       72.21       72.10       72.00       71.89    
        71.75       71.60       71.44       71.27       71.09       70.92       70.75       70.58       70.42       70.26    
        70.10       69.96       69.81       69.68       69.56       69.45       69.35       69.28       69.23       69.21    
        69.21       69.24       69.29       69.35       69.43       69.53       69.63       69.75       69.87       70.00    
  18  -1000.0       76.58       76.54       76.45       76.33       76.16       75.95       75.69       75.40       75.07    
        74.71       74.32       73.93       73.55       73.21       72.92       72.70       72.53       72.36       72.19    
        71.99       71.78       71.57       71.36       71.15       70.95       70.76       70.57       70.39       70.22    
        70.05       69.89       69.74       69.59       69.45       69.33       69.22       69.14       69.08       69.06    
        69.07       69.11       69.17       69.24       69.34       69.44       69.57       69.70       69.85       70.00    
  19  -1000.0       76.83       76.79       76.71       76.59       76.44       76.24       76.00       75.73       75.43    
        75.09       74.74       74.39       74.04       73.71       73.41       73.15       72.94       72.73       72.51    
        72.24       71.97       71.71       71.45       71.21       70.98       70.76       70.56       70.36       70.17    
        69.99       69.82       69.65       69.49       69.34       69.20       69.08       68.98       68.92       68.90    
        68.92       68.97       69.04       69.13       69.23       69.36       69.50       69.65       69.82       70.00    
  20  -1000.0       77.10       77.06       76.99       76.87       76.72       76.54       76.32       76.06       75.78    
        75.47       75.14       74.81       74.47       74.15       73.83       73.57       73.33       73.12       72.85    
        72.50       72.15       71.83       71.54       71.26       71.00       70.76       70.54       70.33       70.13    
        69.93       69.75       69.57       69.40       69.24       69.08       68.94       68.82       68.75       68.74    
        68.77       68.83       68.91       69.01       69.13       69.26       69.42       69.59       69.79       70.00    
  21  -1000.0       77.38       77.34       77.27       77.16       77.02       76.84       76.63       76.39       76.13    
        75.84       75.52       75.20       74.87       74.54       74.22       73.93       73.71       73.58       73.26    
        72.74       72.31       71.94       71.61       71.30       71.02       70.76       70.52       70.29       70.08    
        69.88       69.68       69.50       69.31       69.14       68.97       68.81       68.67       68.58       68.57    
        68.62       68.69       68.78       68.89       69.02       69.16       69.33       69.53       69.76       70.00    
  22  -1000.0       77.67       77.63       77.56       77.46       77.32       77.16       76.96       76.73       76.47    
        76.19       75.89       75.57       75.24       74.90       74.56       74.25       73.98       73.81       73.45    
        72.89       72.43       72.02       71.66       71.32       71.02       70.75       70.49       70.26       70.03    
        69.82       69.62       69.43       69.24       69.06       68.88       68.71       68.55       68.43       68.45    
        68.50       68.58       68.67       68.78       68.91       69.06       69.25       69.46       69.72       70.00    
  23  -1000.0       77.96       77.93       77.86       77.76       77.63       77.47       77.28       77.06       76.81    
        76.54       76.24       75.92       75.58       75.23       74.86       74.51       74.16       73.83       73.42    
        72.95       72.49       72.07       71.69       71.34       71.03       70.74       70.47       70.23       70.00    
        69.78       69.58       69.38       69.19       69.01       68.83       68.66       68.51       68.41       68.40    
        68.44       68.51       68.59       68.69       68.82       68.98       69.17       69.40       69.68       70.00    
  24  -1000.0       78.26       78.23       78.17       78.07       77.94       77.79       77.60       77.39       77.15    
        76.88       76.58       76.26       75.92       75.55       75.15       74.75       74.34       73.92       73.45    
        72.99       72.54       72.11       71.72       71.37       71.05       70.75       70.47       70.21       69.97    
        69.76       69.55       69.35       69.16       68.98       68.81       68.65       68.52       68.43       68.40    
        68.42       68.47       68.54       68.63       68.76       68.91       69.11       69.36       69.66       70.00    
  25  -1000.0       78.57       78.54       78.47       78.38       78.26       78.11       77.93       77.72       77.48    
        77.21       76.92       76.60       76.25       75.86       75.44       75.00       74.53       74.04       73.54    
        73.03       72.58       72.15       71.76       71.40       71.09       70.77       70.48       70.22       69.98    
        69.76       69.55       69.35       69.17       68.99       68.83       68.69       68.56       68.48       68.44    
        68.44       68.47       68.52       68.61       68.72       68.88       69.07       69.33       69.64       70.00    
  26  -1000.0       78.56       78.53       78.47       78.38       78.26       78.11       77.93       77.73       77.49    
        77.23       76.93       76.61       76.25       75.85       75.41       74.93       74.44       73.93       73.41    
        73.02       72.60       72.18       71.79       71.43       71.10       70.79       70.50       70.23       69.99    
        69.77       69.57       69.38       69.19       69.02       68.87       68.73       68.62       68.53       68.49    
        68.47       68.49       68.53       68.60       68.71       68.86       69.05       69.31       69.63       70.00    
  27  -1000.0       78.56       78.53       78.47       78.38       78.26       78.12       77.94       77.74       77.51    
        77.24       76.95       76.63       76.27       75.87       75.43       74.97       74.47       73.96       73.46    
        73.08       72.67       72.26       71.86       71.50       71.17       70.85       70.57       70.31       70.07    
        69.85       69.64       69.45       69.28       69.11       68.96       68.83       68.72       68.64       68.58    
        68.56       68.56       68.60       68.66       68.75       68.89       69.08       69.33       69.64       70.00    
  28  -1000.0       78.56       78.53       78.47       78.38       78.27       78.13       77.95       77.75       77.52    
        77.26       76.97       76.65       76.30       75.90       75.47       75.02       74.56       74.08       73.59    
        73.19       72.79       72.38       71.99       71.63       71.29       70.98       70.70       70.44       70.20    
        69.98       69.78       69.59       69.41       69.25       69.11       68.98       68.87       68.79       68.73    
        68.70       68.70       68.72       68.77       68.86       68.98       69.16       69.39       69.67       70.00    
  29  -1000.0       78.56       78.53       78.48       78.39       78.28       78.14       77.97       77.77       77.54    
        77.29       77.00       76.68       76.33       75.95       75.53       75.10       74.65       74.21       73.76    
        73.34       72.94       72.54       72.16       71.80       71.47       71.16       70.88       70.62       70.38    
        70.16       69.96       69.77       69.60       69.44       69.29       69.17       69.06       68.98       68.92    
        68.88       68.87       68.88       68.92       69.00       69.11       69.27       69.47       69.72       70.00    
  30  -1000.0       78.57       78.54       78.48       78.40       78.29       78.15       77.98       77.79       77.57    
        77.31       77.03       76.72       76.38       76.00       75.59       75.18       74.76       74.33       73.91    
        73.50       73.10       72.72       72.34       71.99       71.67       71.36       71.08       70.82       70.59    
        70.36       70.16       69.97       69.80       69.64       69.50       69.37       69.27       69.18       69.12    
        69.07       69.06       69.06       69.10       69.16       69.26       69.39       69.56       69.77       70.00    
  31  -1000.0       78.58       78.55       78.49       78.41       78.30       78.17       78.00       77.81       77.59    
        77.34       77.07       76.76       76.42       76.06       75.66       75.26       74.86       74.45       74.05    
        73.65       73.27       72.89       72.53       72.19       71.87       71.57       71.29       71.04       70.80    
        70.58       70.37       70.18       70.01       69.85       69.71       69.58       69.48       69.39       69.32    
        69.27       69.25       69.25       69.27       69.32       69.40       69.51       69.65       69.82       70.00    
  32  -1000.0       78.59       78.56       78.51       78.43       78.32       78.18       78.02       77.83       77.62    
        77.38       77.10       76.80       76.48       76.12       75.73       75.34       74.95       74.57       74.18    
        73.80       73.42       73.06       72.71       72.38       72.07       71.77       71.50       71.24       71.01    
        70.78       70.58       70.39       70.22       70.06       69.92       69.79       69.68       69.59       69.52    
        69.46       69.43       69.42       69.43       69.47       69.53       69.62       69.73       69.86       70.00    
  33  -1000.0       78.60       78.57       78.52       78.44       78.34       78.20       78.04       77.86       77.65    
        77.41       77.14       76.85       76.53       76.18       75.80       75.43       75.05       74.68       74.31    
        73.94       73.57       73.22       72.89       72.56       72.26       71.97       71.70       71.44       71.21    
        70.99       70.78       70.59       70.42       70.26       70.11       69.99       69.87       69.78       69.70    
        69.64       69.61       69.59       69.59       69.61       69.65       69.72       69.80       69.89       70.00    
  34  -1000.0       78.61       78.59       78.53       78.46       78.35       78.22       78.07       77.88       77.68    
        77.44       77.18       76.89       76.58       76.24       75.87       75.50       75.14       74.78       74.42    
        74.06       73.71       73.37       73.05       72.73       72.43       72.15       71.88       71.63       71.40    
        71.18       70.97       70.78       70.61       70.45       70.30       70.17       70.06       69.96       69.88    
        69.81       69.77       69.74       69.73       69.73       69.76       69.80       69.86       69.93       70.00    
  35  -1000.0       78.63       78.60       78.55       78.47       78.37       78.24       78.09       77.91       77.70    
        77.47       77.22       76.94       76.63       76.29       75.94       75.58       75.23       74.87       74.53    
        74.18       73.84       73.51       73.19       72.89       72.60       72.32       72.05       71.81       71.57    
        71.35       71.15       70.96       70.78       70.62       70.47       70.34       70.22       70.12       70.04    
        69.97       69.91       69.87       69.85       69.84       69.85       69.87       69.91       69.95       70.00    
  36  -1000.0       78.64       78.62       78.56       78.49       78.39       78.26       78.11       77.93       77.73    
        77.51       77.25       76.98       76.68       76.35       76.00       75.65       75.30       74.96       74.63    
        74.29       73.96       73.64       73.33       73.03       72.74       72.47       72.21       71.97       71.73    
        71.52       71.31       71.12       70.95       70.78       70.63       70.50       70.38       70.27       70.18    
        70.10       70.04       69.99       69.96       69.94       69.93       69.94       69.95       69.97       70.00    
  37  -1000.0       78.66       78.63       78.58       78.50       78.40       78.28       78.13       77.96       77.76    
        77.54       77.29       77.02       76.72       76.40       76.06       75.72       75.38       75.05       74.72    
        74.39       74.07       73.75       73.45       73.16       72.88       72.61       72.35       72.11       71.88    
        71.67       71.46       71.27       71.09       70.93       70.78       70.64       70.52       70.41       70.31    
        70.23       70.16       70.10       70.06       70.03       70.01       69.99       69.99       69.99       70.00    
  38  -1000.0       78.67       78.64       78.59       78.52       78.42       78.30       78.15       77.98       77.78    
        77.57       77.32       77.06       76.76       76.45       76.11       75.78       75.45       75.12       74.80    
        74.48       74.16       73.86       73.56       73.28       73.00       72.74       72.48       72.24       72.02    
        71.80       71.60       71.41       71.23       71.06       70.91       70.77       70.64       70.53       70.43    
        70.34       70.26       70.20       70.14       70.10       70.07       70.04       70.02       70.01       70.00    
  39  -1000.0       78.68       78.66       78.61       78.53       78.43       78.31       78.17       78.00       77.81    
        77.59       77.35       77.09       76.80       76.49       76.16       75.83       75.51       75.19       74.87    
        74.56       74.25       73.95       73.66       73.38       73.11       72.85       72.60       72.36       72.14    
        71.92       71.72       71.53       71.35       71.18       71.03       70.89       70.76       70.64       70.53    
        70.44       70.35       70.28       70.22       70.17       70.12       70.08       70.05       70.03       70.00    
  40  -1000.0       78.70       78.67       78.62       78.54       78.45       78.33       78.18       78.02       77.83    
        77.61       77.38       77.12       76.84       76.54       76.21       75.88       75.56       75.25       74.94    
        74.63       74.33       74.03       73.75       73.47       73.21       72.95       72.70       72.47       72.24    
        72.03       71.83       71.64       71.46       71.29       71.13       70.99       70.86       70.74       70.62    
        70.52       70.43       70.36       70.28       70.22       70.17       70.12       70.08       70.04       70.00    
  41  -1000.0       78.71       78.68       78.63       78.55       78.46       78.34       78.19       78.03       77.84    
        77.63       77.40       77.15       76.87       76.57       76.25       75.93       75.61       75.30       75.00    
        74.69       74.40       74.11       73.83       73.56       73.29       73.04       72.79       72.56       72.34    
        72.13       71.92       71.73       71.55       71.39       71.23       71.08       70.95       70.82       70.71    
        70.60       70.51       70.42       70.34       70.27       70.21       70.15       70.10       70.05       70.00    
  42  -1000.0       78.74       78.69       78.64       78.56       78.46       78.34       78.20       78.04       77.85    
        77.65       77.42       77.17       76.90       76.60       76.28       75.97       75.66       75.35       75.05    
        74.75       74.46       74.17       73.90       73.63       73.37       73.12       72.87       72.64       72.42    
        72.21       72.01       71.82       71.64       71.47       71.31       71.16       71.02       70.89       70.77    
        70.67       70.57       70.47       70.39       70.31       70.24       70.18       70.12       70.06       70.00    
  43  -1000.0       78.77       78.73       78.64       78.56       78.46       78.34       78.20       78.04       77.86    
        77.66       77.44       77.19       76.92       76.63       76.31       76.00       75.70       75.39       75.10    
        74.80       74.51       74.23       73.96       73.69       73.43       73.18       72.94       72.71       72.49    
        72.28       72.08       71.89       71.71       71.54       71.38       71.23       71.09       70.96       70.83    
        70.72       70.62       70.52       70.43       70.35       70.27       70.20       70.13       70.07       70.00    
  44  -1000.0     -1000.0       78.76       78.68       78.56       78.46       78.34       78.20       78.04       77.87    
        77.67       77.45       77.20       76.94       76.65       76.34       76.03       75.73       75.43       75.13    
        74.84       74.56       74.28       74.01       73.74       73.49       73.24       73.00       72.77       72.55    
        72.34       72.14       71.95       71.77       71.60       71.44       71.28       71.14       71.01       70.88    
        70.77       70.66       70.56       70.47       70.38       70.30       70.22       70.14       70.07       70.00    
  45  -1000.0     -1000.0     -1000.0       78.69       78.59       78.45       78.33       78.19       78.04       77.87    
        77.67       77.45       77.21       76.95       76.67       76.36       76.05       75.75       75.46       75.17    
        74.88       74.59       74.32       74.05       73.79       73.53       73.29       73.05       72.82       72.60    
        72.39       72.19       72.00       71.82       71.65       71.49       71.33       71.19       71.05       70.93    
        70.81       70.70       70.59       70.50       70.40       70.32       70.23       70.15       70.08       70.00    
  46  -1000.0     -1000.0     -1000.0     -1000.0       78.60       78.47       78.31       78.18       78.03       77.86    
        77.67       77.46       77.22       76.96       76.68       76.37       76.07       75.77       75.48       75.19    
        74.90       74.62       74.35       74.08       73.82       73.57       73.32       73.09       72.86       72.64    
        72.43       72.23       72.04       71.86       71.69       71.52       71.37       71.22       71.09       70.96    
        70.84       70.72       70.62       70.52       70.42       70.33       70.25       70.16       70.08       70.00    
  47  -1000.0     -1000.0     -1000.0     -1000.0     -1000.0       78.48       78.33       78.16       78.01       77.85    
        77.66       77.45       77.22       76.97       76.69       76.39       76.09       75.79       75.50       75.21    
        74.92       74.64       74.37       74.10       73.85       73.59       73.35       73.12       72.89       72.67    
        72.46       72.26       72.07       71.89       71.72       71.55       71.40       71.25       71.11       70.98    
        70.86       70.74       70.64       70.53       70.44       70.34       70.25       70.17       70.08       70.00    
  48  -1000.0     -1000.0     -1000.0     -1000.0     -1000.0     -1000.0       78.34       78.18       77.98       77.83    
        77.65       77.45       77.22       76.97       76.69       76.39       76.09       75.80       75.51       75.22    
        74.94       74.66       74.39       74.12       73.86       73.61       73.37       73.13       72.91       72.69    
        72.48       72.28       72.09       71.91       71.73       71.57       71.41       71.27       71.13       71.00    
        70.87       70.76       70.65       70.54       70.45       70.35       70.26       70.17       70.09       70.00    
  49  -1000.0     -1000.0     -1000.0     -1000.0     -1000.0     -1000.0     -1000.0       78.19       78.01       77.80    
        77.64       77.45       77.22       76.97       76.70       76.40       76.10       75.80       75.51       75.23    
        74.94       74.66       74.39       74.13       73.87       73.62       73.38       73.14       72.92       72.70    
        72.49       72.29       72.10       71.92       71.74       71.58       71.42       71.28       71.14       71.01    
        70.88       70.77       70.65       70.55       70.45       70.35       70.26       70.17       70.09       70.00    
  50  -1000.0     -1000.0     -1000.0     -1000.0     -1000.0     -1000.0     -1000.0     -1000.0     -1000.0     -1000.0    
      -1000.0     -1000.0     -1000.0     -1000.0     -1000.0     -1000.0     -1000.0     -1000.0     -1000.0     -1000.0    
      -1000.0     -1000.0     -1000.0     -1000.0     -1000.0     -1000.0     -1000.0     -1000.0     -1000.0     -1000.0    
      -1000.0     -1000.0     -1000.0     -1000.0     -1000.0     -1000.0     -1000.0     -1000.0     -1000.0     -1000.0    
      -1000.0     -1000.0     -1000.0     -1000.0     -1000.0     -1000.0     -1000.0     -1000.0     -1000.0       70.00    
1
              HEAD IN LAYER   3 AT END OF TIME STEP   1 IN STRESS PERIOD    1
  ---------------------------------------------------------------------------

            1           2           3           4           5           6           7           8           9          10
           11          12          13          14          15          16          17          18          19          20
           21          22          23          24          25          26          27          28          29          30
           31          32          33          34          35          36          37          38          39          40
[...]
        73.08       72.76       72.47       72.19       71.93       71.68       71.44       71.20       70.96       70.72    
        70.48       70.23       69.96       69.67       69.35       68.97       68.50       67.94       67.37       67.82    
        68.28       68.63       68.89       69.11       69.29       69.45       69.59       69.73       69.87       70.00    
  24  -1000.0       78.26       78.23       78.17       78.07       77.94       77.79       77.60       77.39       77.15    
        76.88       76.58       76.26       75.92       75.55       75.15       74.75       74.34       73.92       73.45    
        73.15       72.84       72.56       72.28       72.02       71.77       71.52       71.28       71.04       70.80    
        70.55       70.30       70.04       69.77       69.47       69.15       68.80       68.45       68.22       68.33    
        68.56       68.79       68.99       69.17       69.33       69.48       69.61       69.74       69.87       70.00    
  25  -1000.0       78.57       78.54       78.47       78.38       78.26       78.11       77.93       77.72       77.48    
        77.21       76.92       76.60       76.25       75.86       75.44       75.00       74.53       74.04       73.54    
        73.21       72.91       72.64       72.37       72.11       71.86       71.61       71.37       71.12       70.88    
        70.64       70.40       70.15       69.89       69.62       69.35       69.09       68.86       68.72       68.73    
        68.83       68.97       69.12       69.26       69.39       69.52       69.64       69.76       69.88       70.00    
  26  -1000.0       78.56       78.53       78.47       78.38       78.26       78.11       77.93       77.73       77.49    
        77.23       76.93       76.61       76.25       75.85       75.41       74.93       74.44       73.93       73.41    
        73.22       72.97       72.72       72.46       72.20       71.95       71.70       71.46       71.22       70.98    
        70.74       70.50       70.27       70.03       69.79       69.56       69.35       69.18       69.07       69.04    
        69.08       69.16       69.25       69.36       69.46       69.57       69.68       69.78       69.89       70.00    
  27  -1000.0       78.56       78.53       78.47       78.38       78.26       78.12       77.94       77.74       77.51    
        77.24       76.95       76.63       76.27       75.87       75.43       74.97       74.47       73.97       73.46    
        73.27       73.05       72.80       72.55       72.30       72.05       71.80       71.56       71.32       71.08    
        70.85       70.62       70.39       70.17       69.96       69.76       69.58       69.43       69.33       69.29    
        69.29       69.33       69.39       69.46       69.54       69.63       69.72       69.81       69.90       70.00    
  28  -1000.0       78.56       78.53       78.47       78.38       78.27       78.13       77.95       77.75       77.52    
        77.26       76.97       76.65       76.30       75.90       75.47       75.02       74.56       74.08       73.59    
        73.38       73.15       72.90       72.65       72.40       72.15       71.90       71.66       71.42       71.19    
        70.96       70.74       70.53       70.32       70.12       69.94       69.78       69.65       69.56       69.50    
        69.48       69.49       69.52       69.57       69.63       69.69       69.76       69.84       69.92       70.00    
  29  -1000.0       78.56       78.53       78.48       78.39       78.28       78.14       77.97       77.77       77.54    
        77.29       77.00       76.68       76.33       75.95       75.53       75.10       74.65       74.21       73.76    
        73.51       73.26       73.01       72.76       72.50       72.25       72.01       71.77       71.53       71.31    
        71.08       70.87       70.66       70.47       70.28       70.11       69.96       69.84       69.75       69.68    
        69.65       69.64       69.65       69.67       69.71       69.76       69.81       69.87       69.93       70.00    
  30  -1000.0       78.57       78.54       78.48       78.40       78.29       78.15       77.98       77.79       77.57    
        77.31       77.03       76.72       76.38       76.00       75.59       75.18       74.76       74.33       73.91    
        73.64       73.38       73.12       72.87       72.61       72.36       72.12       71.88       71.65       71.42    
        71.21       71.00       70.80       70.61       70.43       70.27       70.13       70.01       69.91       69.84    
        69.80       69.77       69.76       69.77       69.79       69.82       69.86       69.90       69.95       70.00    
  31  -1000.0       78.58       78.55       78.49       78.41       78.30       78.17       78.00       77.81       77.59    
        77.34       77.07       76.76       76.42       76.06       75.66       75.26       74.86       74.45       74.05    
        73.78       73.51       73.24       72.98       72.73       72.48       72.23       71.99       71.76       71.54    
        71.33       71.12       70.93       70.74       70.57       70.42       70.28       70.16       70.06       69.99    
        69.93       69.89       69.87       69.86       69.87       69.88       69.90       69.93       69.97       70.00    
  32  -1000.0       78.59       78.56       78.51       78.43       78.32       78.18       78.02       77.83       77.62    
        77.37       77.10       76.80       76.47       76.12       75.73       75.34       74.95       74.57       74.18    
        73.90       73.63       73.36       73.09       72.84       72.59       72.34       72.11       71.88       71.66    
        71.45       71.25       71.05       70.88       70.71       70.56       70.42       70.30       70.20       70.12    
        70.05       70.00       69.97       69.95       69.94       69.94       69.95       69.96       69.98       70.00    
  33  -1000.0       78.60       78.57       78.52       78.44       78.34       78.20       78.04       77.86       77.65    
        77.41       77.14       76.85       76.53       76.18       75.80       75.43       75.05       74.68       74.31    
        74.02       73.74       73.47       73.21       72.95       72.70       72.45       72.22       71.99       71.77    
        71.56       71.36       71.18       71.00       70.84       70.69       70.55       70.43       70.32       70.24    
        70.16       70.11       70.06       70.03       70.01       69.99       69.99       69.99       69.99       70.00    
  34  -1000.0       78.61       78.59       78.53       78.46       78.35       78.22       78.07       77.88       77.68    
        77.44       77.18       76.89       76.58       76.24       75.87       75.50       75.14       74.78       74.42    
        74.13       73.85       73.58       73.31       73.06       72.80       72.56       72.33       72.10       71.88    
        71.68       71.48       71.29       71.12       70.95       70.80       70.67       70.55       70.44       70.34    
        70.27       70.20       70.15       70.10       70.07       70.05       70.03       70.02       70.01       70.00    
  35  -1000.0       78.63       78.60       78.55       78.47       78.37       78.24       78.09       77.91       77.70    
        77.47       77.22       76.94       76.63       76.29       75.94       75.58       75.23       74.87       74.53    
        74.24       73.96       73.68       73.42       73.16       72.91       72.67       72.43       72.21       71.99    
        71.78       71.59       71.40       71.23       71.07       70.92       70.78       70.65       70.54       70.44    
        70.36       70.29       70.22       70.17       70.13       70.09       70.06       70.04       70.02       70.00    
  36  -1000.0       78.64       78.62       78.56       78.49       78.39       78.26       78.11       77.93       77.73    
        77.51       77.25       76.98       76.68       76.35       76.00       75.65       75.30       74.96       74.63    
        74.34       74.05       73.78       73.51       73.26       73.01       72.76       72.53       72.31       72.09    
        71.89       71.69       71.51       71.33       71.17       71.02       70.88       70.75       70.64       70.53    
        70.44       70.36       70.29       70.23       70.18       70.14       70.10       70.06       70.03       70.00    
  37  -1000.0       78.66       78.63       78.58       78.50       78.40       78.28       78.13       77.96       77.76    
        77.54       77.29       77.02       76.72       76.40       76.06       75.72       75.38       75.05       74.72    
        74.43       74.15       73.87       73.61       73.35       73.10       72.86       72.62       72.40       72.19    
        71.98       71.79       71.60       71.43       71.26       71.11       70.97       70.84       70.72       70.62    
        70.52       70.43       70.36       70.29       70.23       70.17       70.13       70.08       70.04       70.00    
  38  -1000.0       78.67       78.64       78.59       78.52       78.42       78.30       78.15       77.98       77.78    
        77.57       77.32       77.06       76.76       76.45       76.11       75.78       75.45       75.12       74.80    
        74.51       74.23       73.96       73.69       73.43       73.18       72.94       72.71       72.49       72.27    
        72.07       71.88       71.69       71.52       71.35       71.20       71.06       70.92       70.80       70.69    
        70.59       70.50       70.42       70.34       70.27       70.21       70.15       70.10       70.05       70.00    
  39  -1000.0       78.68       78.66       78.61       78.53       78.43       78.31       78.17       78.00       77.81    
        77.59       77.35       77.09       76.80       76.49       76.16       75.83       75.51       75.19       74.87    
        74.59       74.30       74.03       73.77       73.51       73.26       73.02       72.79       72.57       72.36    
        72.15       71.96       71.77       71.60       71.43       71.28       71.13       71.00       70.87       70.76    
        70.65       70.56       70.47       70.39       70.31       70.24       70.18       70.12       70.06       70.00    
  40  -1000.0       78.70       78.67       78.62       78.54       78.45       78.33       78.18       78.02       77.83    
        77.61       77.38       77.12       76.84       76.54       76.21       75.88       75.56       75.25       74.94    
        74.65       74.37       74.10       73.84       73.58       73.33       73.10       72.86       72.64       72.43    
        72.23       72.03       71.85       71.67       71.51       71.35       71.20       71.07       70.94       70.82    
        70.71       70.61       70.51       70.43       70.35       70.27       70.20       70.13       70.06       70.00    
  41  -1000.0       78.71       78.68       78.63       78.55       78.46       78.34       78.19       78.03       77.84    
        77.63       77.40       77.15       76.87       76.57       76.25       75.93       75.61       75.30       75.00    
        74.71       74.44       74.16       73.90       73.65       73.40       73.16       72.93       72.71       72.50    
        72.29       72.10       71.91       71.74       71.57       71.41       71.26       71.13       71.00       70.87    
        70.76       70.65       70.56       70.46       70.38       70.30       70.22       70.14       70.07       70.00    
  42  -1000.0     -1000.0       78.69       78.64       78.56       78.46       78.34       78.20       78.04       77.85    
        77.65       77.42       77.17       76.90       76.60       76.28       75.97       75.66       75.35       75.05    
        74.77       74.49       74.22       73.96       73.70       73.46       73.22       72.99       72.77       72.56    
        72.35       72.16       71.97       71.80       71.63       71.47       71.32       71.18       71.05       70.92    
        70.80       70.69       70.59       70.50       70.40       70.32       70.24       70.16       70.08       70.00    
  43  -1000.0     -1000.0     -1000.0       78.64       78.56       78.46       78.34       78.20       78.04       77.86    
        77.66       77.44       77.19       76.92       76.63       76.31       76.00       75.70       75.39       75.10    
        74.81       74.54       74.27       74.01       73.75       73.51       73.27       73.04       72.82       72.61    
        72.41       72.21       72.02       71.85       71.68       71.52       71.37       71.22       71.09       70.96    
        70.84       70.73       70.62       70.52       70.43       70.34       70.25       70.16       70.08       70.00    
  44  -1000.0     -1000.0     -1000.0     -1000.0       78.56       78.46       78.34       78.20       78.04       77.87    
        77.67       77.45       77.20       76.94       76.65       76.34       76.03       75.73       75.43       75.13    
        74.85       74.58       74.31       74.05       73.80       73.55       73.32       73.09       72.87       72.65    
        72.45       72.25       72.07       71.89       71.72       71.56       71.41       71.26       71.13       71.00    
        70.87       70.76       70.65       70.55       70.45       70.35       70.26       70.17       70.09       70.00    
  45  -1000.0     -1000.0     -1000.0     -1000.0     -1000.0       78.45       78.33       78.19       78.04       77.87    
        77.67       77.45       77.21       76.95       76.67       76.36       76.05       75.75       75.46       75.17    
        74.88       74.61       74.34       74.08       73.83       73.59       73.35       73.12       72.90       72.69    
        72.49       72.29       72.10       71.93       71.76       71.59       71.44       71.29       71.16       71.03    
        70.90       70.78       70.67       70.57       70.46       70.37       70.27       70.18       70.09       70.00    
  46  -1000.0     -1000.0     -1000.0     -1000.0     -1000.0     -1000.0       78.31       78.18       78.03       77.86    
        77.67       77.46       77.22       76.96       76.68       76.37       76.07       75.77       75.48       75.19    
        74.91       74.64       74.37       74.11       73.86       73.62       73.38       73.15       72.93       72.72    
        72.52       72.32       72.13       71.96       71.78       71.62       71.47       71.32       71.18       71.05    
        70.92       70.80       70.69       70.58       70.48       70.38       70.28       70.19       70.09       70.00    
  47  -1000.0     -1000.0     -1000.0     -1000.0     -1000.0     -1000.0     -1000.0       78.16       78.01       77.85    
        77.66       77.45       77.22       76.97       76.69       76.39       76.09       75.79       75.50       75.21    
        74.93       74.66       74.39       74.13       73.88       73.64       73.40       73.17       72.95       72.74    
        72.54       72.34       72.16       71.98       71.81       71.64       71.49       71.34       71.20       71.07    
        70.94       70.82       70.70       70.59       70.49       70.38       70.29       70.19       70.09       70.00    
  48  -1000.0     -1000.0     -1000.0     -1000.0     -1000.0     -1000.0     -1000.0     -1000.0       77.98       77.83    
        77.65       77.45       77.22       76.97       76.69       76.39       76.09       75.80       75.51       75.22    
        74.94       74.67       74.41       74.15       73.90       73.65       73.42       73.19       72.97       72.76    
        72.55       72.36       72.17       71.99       71.82       71.66       71.50       71.35       71.21       71.08    
        70.95       70.83       70.71       70.60       70.49       70.39       70.29       70.19       70.10       70.00    
  49  -1000.0     -1000.0     -1000.0     -1000.0     -1000.0     -1000.0     -1000.0     -1000.0     -1000.0       77.80    
        77.64       77.45       77.22       76.97       76.70       76.40       76.10       75.80       75.51       75.23    
        74.95       74.68       74.41       74.15       73.90       73.66       73.42       73.20       72.98       72.77    
        72.56       72.37       72.18       72.00       71.83       71.66       71.51       71.36       71.22       71.08    
        70.95       70.83       70.72       70.60       70.50       70.39       70.29       70.19       70.10       70.00    
  50  -1000.0     -1000.0     -1000.0     -1000.0     -1000.0     -1000.0     -1000.0     -1000.0     -1000.0     -1000.0    
      -1000.0     -1000.0     -1000.0     -1000.0     -1000.0     -1000.0     -1000.0     -1000.0     -1000.0     -1000.0    
      -1000.0     -1000.0     -1000.0     -1000.0     -1000.0     -1000.0     -1000.0     -1000.0     -1000.0     -1000.0    
      -1000.0     -1000.0     -1000.0     -1000.0     -1000.0     -1000.0     -1000.0     -1000.0     -1000.0     -1000.0    
      -1000.0     -1000.0     -1000.0     -1000.0     -1000.0     -1000.0     -1000.0     -1000.0     -1000.0       70.00    

 HEAD WILL BE SAVED ON UNIT   51 AT END OF TIME STEP    1, STRESS PERIOD    1

 DRAWDOWN WILL BE SAVED ON UNIT   52 AT END OF TIME STEP    1, STRESS PERIOD    1
1
  VOLUMETRIC BUDGET FOR ENTIRE MODEL AT END OF TIME STEP    1, STRESS PERIOD   1
  ------------------------------------------------------------------------------

     CUMULATIVE VOLUMES      L**3       RATES FOR THIS TIME STEP      L**3/T
     ------------------                 ------------------------

           IN:                                      IN:
           ---                                      ---
             STORAGE =           0.0000               STORAGE =           0.0000
       CONSTANT HEAD =        2271.4512         CONSTANT HEAD =        2271.4512
               WELLS =         375.0000                 WELLS =         375.0000
       RIVER LEAKAGE =        6000.0000         RIVER LEAKAGE =        6000.0000
                  ET =           0.0000                    ET =           0.0000
            RECHARGE =        7120.0000              RECHARGE =        7120.0000

            TOTAL IN =       15766.4512              TOTAL IN =       15766.4512

          OUT:                                     OUT:
          ----                                     ----
             STORAGE =           0.0000               STORAGE =           0.0000
       CONSTANT HEAD =         296.8897         CONSTANT HEAD =         296.8897
               WELLS =        6000.0000                 WELLS =        6000.0000
       RIVER LEAKAGE =           0.0000         RIVER LEAKAGE =           0.0000
                  ET =        9469.5518                    ET =        9469.5518
            RECHARGE =           0.0000              RECHARGE =           0.0000

           TOTAL OUT =       15766.4414             TOTAL OUT =       15766.4414

            IN - OUT =       9.7656E-03              IN - OUT =       9.7656E-03

 PERCENT DISCREPANCY =           0.00     PERCENT DISCREPANCY =           0.00






         TIME SUMMARY AT END OF TIME STEP    1 IN STRESS PERIOD    1
                    SECONDS     MINUTES      HOURS       DAYS        YEARS
                    -----------------------------------------------------------
   TIME STEP LENGTH  86400.      1440.0      24.000      1.0000     2.73785E-03
 STRESS PERIOD TIME  86400.      1440.0      24.000      1.0000     2.73785E-03
         TOTAL TIME  86400.      1440.0      24.000      1.0000     2.73785E-03
1

 Run end date and time (yyyy/mm/dd hh:mm:ss): 2026/02/24 16:21:13
 Elapsed run time: 11.845 Seconds

