                                  MODFLOW-2005     
      U.S. GEOLOGICAL SURVEY MODULAR FINITE-DIFFERENCE GROUND-WATER FLOW MODEL
                            VERSION 1.12.00 2/3/2017

 LIST FILE: static_ensemble_3313331.list
                         UNIT    2

 OPENING static_ensemble_3313331.dis
 FILE TYPE:DIS   UNIT   11   STATUS:OLD    
 FORMAT:FORMATTED              ACCESS:SEQUENTIAL          

 OPENING static_ensemble_3313331.bas
 FILE TYPE:BAS6   UNIT   13   STATUS:OLD    
 FORMAT:FORMATTED              ACCESS:SEQUENTIAL          

 OPENING static_ensemble_3313331.lpf
 FILE TYPE:LPF   UNIT   15   STATUS:OLD    
 FORMAT:FORMATTED              ACCESS:SEQUENTIAL          

 OPENING static_ensemble_3313331.evt
 FILE TYPE:EVT   UNIT   22   STATUS:OLD    
 FORMAT:FORMATTED              ACCESS:SEQUENTIAL          

 OPENING static_ensemble_3313331.rch
 FILE TYPE:RCH   UNIT   19   STATUS:OLD    
 FORMAT:FORMATTED              ACCESS:SEQUENTIAL          

 OPENING static_ensemble_3313331.riv
 FILE TYPE:RIV   UNIT   18   STATUS:OLD    
 FORMAT:FORMATTED              ACCESS:SEQUENTIAL          

 OPENING static_ensemble_3313331.wel
 FILE TYPE:WEL   UNIT   20   STATUS:OLD    
 FORMAT:FORMATTED              ACCESS:SEQUENTIAL          

 OPENING static_ensemble_3313331.oc
 FILE TYPE:OC   UNIT   14   STATUS:OLD    
 FORMAT:FORMATTED              ACCESS:SEQUENTIAL          

 OPENING static_ensemble_3313331.pcg
 FILE TYPE:PCG   UNIT   27   STATUS:OLD    
 FORMAT:FORMATTED              ACCESS:SEQUENTIAL          

 OPENING static_ensemble_3313331.cbc
 FILE TYPE:DATA(BINARY)   UNIT   53   STATUS:REPLACE
 FORMAT:UNFORMATTED            ACCESS:STREAM              

 OPENING static_ensemble_3313331.hds
 FILE TYPE:DATA(BINARY)   UNIT   51   STATUS:REPLACE
 FORMAT:UNFORMATTED            ACCESS:STREAM              

 OPENING static_ensemble_3313331.ddn
 FILE TYPE:DATA(BINARY)   UNIT   52   STATUS:REPLACE
 FORMAT:UNFORMATTED            ACCESS:STREAM              

 BAS -- BASIC PACKAGE, VERSION 7, 5/2/2005 INPUT READ FROM UNIT   13
 
 MODFLOW was compiled using mixed precision
 Precision of REAL variables:           6
 Precision of DOUBLE PRECISION variables:          15

 DISCRETIZATION INPUT DATA READ FROM UNIT   11
 # DIS package for MODFLOW-2005 generated by Flopy 3.9.5
    3 LAYERS        50 ROWS        50 COLUMNS
    1 STRESS PERIOD(S) IN SIMULATION
 MODEL TIME UNIT IS DAYS
 MODEL LENGTH UNIT IS METERS
  Confining bed flag for each layer:
   0   0   0

                     DELR =   1000.00    

                     DELC =   1000.00    



           TOP ELEVATION OF LAYER 1
 READING ON UNIT   11 WITH FORMAT: (50E15.6)           



             MODEL LAYER BOTTOM EL. FOR LAYER   1
 READING ON UNIT   11 WITH FORMAT: (50E15.6)           



             MODEL LAYER BOTTOM EL. FOR LAYER   2
 READING ON UNIT   11 WITH FORMAT: (50E15.6)           



             MODEL LAYER BOTTOM EL. FOR LAYER   3
 READING ON UNIT   11 WITH FORMAT: (50E15.6)           


 STRESS PERIOD     LENGTH       TIME STEPS     MULTIPLIER FOR DELT    SS FLAG
 ----------------------------------------------------------------------------
        1         1.000000          1                    1.000         SS

 STEADY-STATE SIMULATION



 
 # BAS6 package for MODFLOW-2005 generated by Flopy 3.9.5                        
 THE FREE FORMAT OPTION HAS BEEN SELECTED



                     BOUNDARY ARRAY FOR LAYER   1
 READING ON UNIT   13 WITH FORMAT: (50I10)             



                     BOUNDARY ARRAY FOR LAYER   2
 READING ON UNIT   13 WITH FORMAT: (50I10)             



                     BOUNDARY ARRAY FOR LAYER   3
 READING ON UNIT   13 WITH FORMAT: (50I10)             

 AQUIFER HEAD WILL BE SET TO  -999.99     AT ALL NO-FLOW NODES (IBOUND=0).



                       INITIAL HEAD FOR LAYER   1
 READING ON UNIT   13 WITH FORMAT: (50E15.6)           



                       INITIAL HEAD FOR LAYER   2
 READING ON UNIT   13 WITH FORMAT: (50E15.6)           



                       INITIAL HEAD FOR LAYER   3
 READING ON UNIT   13 WITH FORMAT: (50E15.6)           
 # OC package for MODFLOW-2005 generated by Flopy 3.9.5

 OUTPUT CONTROL IS SPECIFIED ONLY AT TIME STEPS FOR WHICH OUTPUT IS DESIRED
 COMPACT CELL-BY-CELL BUDGET FILES WILL BE WRITTEN
 AUXILIARY DATA WILL BE SAVED IN CELL-BY-CELL BUDGET FILES
 HEAD PRINT FORMAT CODE IS   0    DRAWDOWN PRINT FORMAT CODE IS   0
 HEADS WILL BE SAVED ON UNIT   51    DRAWDOWNS WILL BE SAVED ON UNIT   52

 LPF -- LAYER-PROPERTY FLOW PACKAGE, VERSION 7, 5/2/2005
         INPUT READ FROM UNIT   15
 # LPF package for MODFLOW-2005 generated by Flopy 3.9.5
 CELL-BY-CELL FLOWS WILL BE SAVED ON UNIT   53
 HEAD AT CELLS THAT CONVERT TO DRY= -1.00000E+30
 No named parameters
 STORAGECOEFFICIENT OPTION:
 Read storage coefficient rather than specific storage

   LAYER FLAGS:
 LAYER       LAYTYP        LAYAVG         CHANI        LAYVKA        LAYWET
 ---------------------------------------------------------------------------
    1             1             0     1.000E+00             0             0
    2             1             0     1.000E+00             0             0
    3             1             0     1.000E+00             0             0

   INTERPRETATION OF LAYER FLAGS:
                        INTERBLOCK     HORIZONTAL    DATA IN
         LAYER TYPE   TRANSMISSIVITY   ANISOTROPY   ARRAY VKA   WETTABILITY
 LAYER      (LAYTYP)      (LAYAVG)       (CHANI)      (LAYVKA)      (LAYWET)
 ---------------------------------------------------------------------------
    1   CONVERTIBLE      HARMONIC     1.000E+00    VERTICAL K  NON-WETTABLE
    2   CONVERTIBLE      HARMONIC     1.000E+00    VERTICAL K  NON-WETTABLE
    3   CONVERTIBLE      HARMONIC     1.000E+00    VERTICAL K  NON-WETTABLE

 WETTING CAPABILITY IS NOT ACTIVE IN ANY LAYER



              HYD. COND. ALONG ROWS FOR LAYER   1
 READING ON UNIT   15 WITH FORMAT: (50E15.6)           



                VERTICAL HYD. COND. FOR LAYER   1
 READING ON UNIT   15 WITH FORMAT: (50E15.6)           



              HYD. COND. ALONG ROWS FOR LAYER   2
 READING ON UNIT   15 WITH FORMAT: (50E15.6)           



                VERTICAL HYD. COND. FOR LAYER   2
 READING ON UNIT   15 WITH FORMAT: (50E15.6)           



              HYD. COND. ALONG ROWS FOR LAYER   3
 READING ON UNIT   15 WITH FORMAT: (50E15.6)           



                VERTICAL HYD. COND. FOR LAYER   3
 READING ON UNIT   15 WITH FORMAT: (50E15.6)           

 WEL -- WELL PACKAGE, VERSION 7, 5/2/2005 INPUT READ FROM UNIT   20
 # WEL package for MODFLOW-2005 generated by Flopy 3.9.5
 No named parameters
 MAXIMUM OF      3 ACTIVE WELLS AT ONE TIME


     0 Well parameters

 RIV -- RIVER PACKAGE, VERSION 7, 5/2/2005 INPUT READ FROM UNIT   18
 # RIV package for MODFLOW-2005 generated by Flopy 3.9.5
 No named parameters
 MAXIMUM OF     49 ACTIVE RIVER REACHES AT ONE TIME
 CELL-BY-CELL FLOWS WILL BE SAVED ON UNIT   53


     0 River parameters

 EVT -- EVAPOTRANSPIRATION PACKAGE, VERSION 7, 5/2/2005
         INPUT READ FROM UNIT   22
 # EVT package for MODFLOW-2005 generated by Flopy 3.9.5
 No named parameters
 OPTION 3 -- EVAPOTRANSPIRATION FROM HIGHEST ACTIVE NODE IN EACH VERTICAL COLUMN
 CELL-BY-CELL FLOWS WILL BE SAVED ON UNIT   53


     0 Evapotranspiration parameters

 RCH -- RECHARGE PACKAGE, VERSION 7, 5/2/2005 INPUT READ FROM UNIT   19
 # RCH package for MODFLOW-2005 generated by Flopy 3.9.5
 No named parameters
 OPTION 3 -- RECHARGE TO HIGHEST ACTIVE NODE IN EACH VERTICAL COLUMN
 CELL-BY-CELL FLOWS WILL BE SAVED ON UNIT   53


     0 Recharge parameters

 PCG -- CONJUGATE-GRADIENT SOLUTION PACKAGE, VERSION 7, 5/2/2005
 # PCG package for MODFLOW-2005 generated by Flopy 3.9.5
 MAXIMUM OF   5000 CALLS OF SOLUTION ROUTINE
 MAXIMUM OF    500 INTERNAL ITERATIONS PER CALL TO SOLUTION ROUTINE
 MATRIX PRECONDITIONING TYPE :    1



                                    SOLUTION BY THE CONJUGATE-GRADIENT METHOD
                                   -------------------------------------------
                    MAXIMUM NUMBER OF CALLS TO PCG ROUTINE =     5000
                        MAXIMUM ITERATIONS PER CALL TO PCG =      500
                               MATRIX PRECONDITIONING TYPE =        1
        RELAXATION FACTOR (ONLY USED WITH PRECOND. TYPE 1) =    0.97000E+00
 PARAMETER OF POLYNOMIAL PRECOND. = 2 (2) OR IS CALCULATED :        0
                         HEAD CHANGE CRITERION FOR CLOSURE =    0.10000E-04
                     RESIDUAL CHANGE CRITERION FOR CLOSURE =    0.10000E-04
            PCG HEAD AND RESIDUAL CHANGE PRINTOUT INTERVAL =      999
     PRINTING FROM SOLVER IS LIMITED(1) OR SUPPRESSED (>1) =        3
                            STEADY-STATE DAMPING PARAMETER =    0.10000E-01
                               TRANSIENT DAMPING PARAMETER =    0.10000E-01
1
                            STRESS PERIOD NO.    1, LENGTH =   1.000000    
                            -----------------------------------------------

                              NUMBER OF TIME STEPS =     1

                               MULTIPLIER FOR DELT =     1.000

                            INITIAL TIME STEP SIZE =   1.000000    

 WELL NO.  LAYER   ROW   COL   STRESS RATE         
 --------------------------------------------------
      1      3     22     39      -1500.    
      2      1     13     15      -1500.    
      3      1     25     26       375.0    

      3 WELLS

 REACH NO.  LAYER   ROW   COL     STAGE      CONDUCTANCE     BOTTOM EL.         
 -------------------------------------------------------------------------------
      1      1     25      2       100.5           1000.           98.00    
      2      1     25      3       99.50           1000.           97.00    
      3      1     25      4       98.50           1000.           96.00    
      4      1     25      5       97.50           1000.           95.00    
      5      1     25      6       96.50           1000.           94.00    
      6      1     25      7       95.50           1000.           93.00    
      7      1     25      8       94.50           1000.           92.00    
      8      1     25      9       93.50           1000.           91.00    
      9      1     25     10       92.50           1000.           90.00    
     10      1     25     11       91.50           1000.           89.00    
     11      1     25     12       90.50           1000.           88.00    
     12      1     25     13       89.50           1000.           87.00    
     13      1     25     14       88.50           1000.           86.00    
     14      1     25     15       87.50           1000.           85.00    
     15      1     25     16       86.50           1000.           84.00    
     16      1     25     17       85.50           1000.           83.00    
     17      1     25     18       84.50           1000.           82.00    
     18      1     25     19       83.50           1000.           81.00    
     19      1     25     20       82.50           1000.           80.00    
     20      1     25     21       81.50           1000.           79.00    
     21      1     25     22       80.50           1000.           78.00    
     22      1     25     23       79.50           1000.           77.00    
     23      1     25     24       78.50           1000.           76.00    
     24      1     25     25       77.50           1000.           75.00    
     25      1     25     26       77.40           1000.           74.90    
     26      1     25     27       77.30           1000.           74.80    
     27      1     25     28       77.20           1000.           74.70    
     28      1     25     29       77.10           1000.           74.60    
     29      1     25     30       77.00           1000.           74.50    
     30      1     25     31       76.90           1000.           74.40    
     31      1     25     32       76.80           1000.           74.30    
     32      1     25     33       76.70           1000.           74.20    
     33      1     25     34       76.60           1000.           74.10    
     34      1     25     35       76.50           1000.           74.00    
     35      1     25     36       76.40           1000.           73.90    
     36      1     25     37       76.30           1000.           73.80    
     37      1     25     38       76.20           1000.           73.70    
     38      1     25     39       76.10           1000.           73.60    
     39      1     25     40       76.00           1000.           73.50    
     40      1     25     41       75.90           1000.           73.40    
     41      1     25     42       75.80           1000.           73.30    
     42      1     25     43       75.70           1000.           73.20    
     43      1     25     44       75.60           1000.           73.10    
     44      1     25     45       75.50           1000.           73.00    
     45      1     25     46       75.40           1000.           72.90    
     46      1     25     47       75.30           1000.           72.80    
     47      1     25     48       75.20           1000.           72.70    
     48      1     25     49       75.10           1000.           72.60    
     49      1     25     50       75.00           1000.           72.50    

     49 RIVER REACHES



                         ET SURFACE
 READING ON UNIT   22 WITH FORMAT: (50E15.6)           



            EVAPOTRANSPIRATION RATE
 READING ON UNIT   22 WITH FORMAT: (50E15.6)           

         EXTINCTION DEPTH =   10.0000    



                           RECHARGE
 READING ON UNIT   19 WITH FORMAT: (50E15.6)           
 
 SOLVING FOR HEAD 

 OUTPUT CONTROL FOR STRESS PERIOD    1   TIME STEP    1
    SAVE HEAD FOR ALL LAYERS
    SAVE DRAWDOWN FOR ALL LAYERS
    SAVE BUDGET
    PRINT HEAD FOR ALL LAYERS
    PRINT BUDGET
 UBDSV2 SAVING "   CONSTANT HEAD" ON UNIT  53 AT TIME STEP  1, STRESS PERIOD   1
 UBDSV1 SAVING "FLOW RIGHT FACE " ON UNIT  53 AT TIME STEP  1, STRESS PERIOD   1
 UBDSV1 SAVING "FLOW FRONT FACE " ON UNIT  53 AT TIME STEP  1, STRESS PERIOD   1
 UBDSV1 SAVING "FLOW LOWER FACE " ON UNIT  53 AT TIME STEP  1, STRESS PERIOD   1
 UBDSV4 SAVING "   RIVER LEAKAGE" ON UNIT  53 AT TIME STEP  1, STRESS PERIOD   1
 UBDSV3 SAVING "              ET" ON UNIT  53 AT TIME STEP  1, STRESS PERIOD   1
 UBDSV3 SAVING "        RECHARGE" ON UNIT  53 AT TIME STEP  1, STRESS PERIOD   1
1
              HEAD IN LAYER   1 AT END OF TIME STEP   1 IN STRESS PERIOD    1
  ---------------------------------------------------------------------------

            1           2           3           4           5           6           7           8           9          10
           11          12          13          14          15          16          17          18          19          20
           21          22          23          24          25          26          27          28          29          30
           31          32          33          34          35          36          37          38          39          40
           41          42          43          44          45          46          47          48          49          50
 ........................................................................................................................
   1  -1000.0     -1000.0     -1000.0     -1000.0     -1000.0     -1000.0     -1000.0     -1000.0     -1000.0     -1000.0    
      -1000.0     -1000.0     -1000.0     -1000.0     -1000.0     -1000.0     -1000.0     -1000.0     -1000.0     -1000.0    
      -1000.0     -1000.0     -1000.0     -1000.0     -1000.0     -1000.0     -1000.0     -1000.0     -1000.0     -1000.0    
      -1000.0     -1000.0     -1000.0     -1000.0     -1000.0     -1000.0     -1000.0     -1000.0     -1000.0     -1000.0    
      -1000.0     -1000.0     -1000.0     -1000.0     -1000.0     -1000.0     -1000.0     -1000.0     -1000.0       70.00    
   2  -1000.0     -1000.0     -1000.0     -1000.0     -1000.0       78.26       78.21       78.14       78.05       77.94    
        77.86       77.76       77.64       77.51       77.37       77.22       77.06       76.89       76.72       76.55    
        76.37       76.19       76.00       75.81       75.62       75.43       75.23       75.03       74.82       74.61    
        74.40       74.19       73.97       73.75       73.53       73.31       73.09       72.86       72.63       72.40    
        72.17       71.93       71.70       71.46       71.22       70.98       70.73       70.49       70.25       70.00    
   3  -1000.0     -1000.0     -1000.0     -1000.0       78.34       78.29       78.23       78.15       78.05       77.97    
        77.87       77.77       77.65       77.52       77.38       77.22       77.06       76.90       76.73       76.55    
        76.37       76.19       76.01       75.82       75.63       75.43       75.23       75.03       74.82       74.61    
        74.40       74.19       73.97       73.76       73.54       73.31       73.09       72.86       72.63       72.40    
        72.17       71.93       71.70       71.46       71.22       70.98       70.74       70.49       70.25       70.00    
   4  -1000.0     -1000.0     -1000.0       78.44       78.38       78.32       78.25       78.16       78.08       77.99    
        77.89       77.79       77.66       77.53       77.39       77.23       77.07       76.90       76.73       76.56    
        76.38       76.20       76.01       75.82       75.63       75.43       75.23       75.03       74.83       74.62    
        74.41       74.19       73.98       73.76       73.54       73.32       73.09       72.86       72.63       72.40    
        72.17       71.94       71.70       71.46       71.22       70.98       70.74       70.49       70.25       70.00    
   5  -1000.0     -1000.0       78.52       78.47       78.42       78.35       78.27       78.19       78.11       78.02    
        77.92       77.81       77.68       77.55       77.40       77.25       77.08       76.92       76.75       76.57    
        76.39       76.21       76.02       75.83       75.64       75.44       75.24       75.04       74.83       74.62    
        74.41       74.20       73.98       73.76       73.54       73.32       73.10       72.87       72.64       72.41    
        72.17       71.94       71.70       71.46       71.22       70.98       70.74       70.49       70.25       70.00    
   6  -1000.0       78.59       78.56       78.51       78.45       78.38       78.31       78.23       78.15       78.05    
        77.95       77.83       77.71       77.57       77.42       77.26       77.10       76.93       76.76       76.59    
        76.41       76.22       76.04       75.84       75.65       75.45       75.25       75.05       74.84       74.63    
        74.42       74.21       73.99       73.77       73.55       73.33       73.10       72.87       72.64       72.41    
        72.18       71.94       71.71       71.47       71.23       70.98       70.74       70.49       70.25       70.00    
   7  -1000.0       78.61       78.59       78.54       78.48       78.42       78.35       78.27       78.19       78.09    
        77.98       77.86       77.73       77.60       77.45       77.29       77.12       76.95       76.78       76.60    
        76.42       76.24       76.05       75.86       75.66       75.47       75.26       75.06       74.85       74.64    
        74.43       74.22       74.00       73.78       73.56       73.33       73.11       72.88       72.65       72.42    
        72.18       71.95       71.71       71.47       71.23       70.99       70.74       70.50       70.25       70.00    
   8  -1000.0       78.64       78.62       78.58       78.53       78.46       78.39       78.32       78.23       78.13    
        78.02       77.90       77.77       77.62       77.47       77.31       77.15       76.98       76.80       76.63    
        76.44       76.26       76.07       75.88       75.68       75.48       75.28       75.07       74.87       74.66    
        74.44       74.23       74.01       73.79       73.57       73.34       73.12       72.89       72.66       72.43    
        72.19       71.95       71.72       71.48       71.23       70.99       70.74       70.50       70.25       70.00    
   9  -1000.0       78.68       78.66       78.62       78.57       78.51       78.44       78.36       78.27       78.17    
        78.06       77.94       77.80       77.66       77.50       77.34       77.17       77.00       76.83       76.65    
        76.47       76.28       76.09       75.90       75.70       75.50       75.30       75.09       74.88       74.67    
        74.46       74.24       74.02       73.80       73.58       73.35       73.13       72.90       72.67       72.43    
        72.20       71.96       71.72       71.48       71.24       70.99       70.75       70.50       70.25       70.00    
  10  -1000.0       78.73       78.70       78.67       78.62       78.56       78.49       78.41       78.32       78.22    
        78.10       77.98       77.84       77.69       77.54       77.37       77.21       77.04       76.86       76.68    
        76.50       76.31       76.12       75.92       75.72       75.52       75.32       75.11       74.90       74.68    
        74.47       74.25       74.03       73.81       73.59       73.37       73.14       72.91       72.68       72.44    
        72.21       71.97       71.73       71.49       71.24       71.00       70.75       70.50       70.25       70.00    
  11  -1000.0       78.77       78.75       78.72       78.67       78.61       78.55       78.47       78.37       78.27    
        78.15       78.02       77.88       77.73       77.57       77.41       77.24       77.07       76.90       76.72    
        76.53       76.34       76.15       75.95       75.75       75.54       75.34       75.13       74.92       74.70    
        74.49       74.27       74.05       73.83       73.60       73.38       73.15       72.92       72.69       72.45    
        72.22       71.98       71.74       71.50       71.25       71.00       70.76       70.50       70.25       70.00    
  12  -1000.0       78.82       78.80       78.77       78.73       78.67       78.61       78.53       78.43       78.33    
        78.21       78.08       77.93       77.77       77.60       77.44       77.28       77.11       76.94       76.75    
        76.57       76.37       76.18       75.98       75.77       75.57       75.36       75.15       74.94       74.72    
        74.50       74.29       74.07       73.84       73.62       73.39       73.16       72.93       72.70       72.47    
        72.23       71.99       71.75       71.51       71.26       71.01       70.76       70.51       70.25       70.00    
  13  -1000.0       78.88       78.87       78.84       78.79       78.74       78.67       78.59       78.50       78.39    
        78.27       78.14       77.99       77.82       77.61       77.48       77.33       77.16       76.98       76.80    
        76.61       76.41       76.21       76.01       75.80       75.59       75.38       75.17       74.96       74.74    
        74.52       74.30       74.08       73.86       73.64       73.41       73.18       72.95       72.72       72.48    
        72.24       72.00       71.76       71.52       71.27       71.02       70.77       70.51       70.26       70.00    
  14  -1000.0       78.95       78.94       78.91       78.87       78.81       78.74       78.66       78.57       78.46    
        78.34       78.21       78.06       77.89       77.72       77.56       77.39       77.21       77.03       76.84    
        76.65       76.45       76.25       76.04       75.83       75.62       75.41       75.20       74.98       74.76    
        74.54       74.32       74.10       73.88       73.65       73.43       73.20       72.97       72.73       72.50    
        72.26       72.02       71.77       71.53       71.28       71.03       70.77       70.52       70.26       70.00    
  15  -1000.0       79.03       79.01       78.99       78.94       78.89       78.82       78.74       78.65       78.54    
        78.42       78.28       78.14       77.98       77.81       77.63       77.46       77.28       77.09       76.90    
        76.70       76.50       76.29       76.08       75.87       75.65       75.44       75.22       75.00       74.78    
        74.56       74.34       74.12       73.90       73.67       73.44       73.22       72.98       72.75       72.51    
        72.28       72.03       71.79       71.54       71.29       71.04       70.78       70.52       70.26       70.00    
  16  -1000.0       79.11       79.10       79.07       79.03       78.98       78.91       78.83       78.73       78.62    
        78.50       78.37       78.22       78.06       77.89       77.71       77.53       77.34       77.15       76.95    
        76.75       76.54       76.33       76.12       75.90       75.68       75.47       75.25       75.03       74.81    
        74.59       74.36       74.14       73.92       73.69       73.46       73.23       73.00       72.77       72.53    
        72.29       72.05       71.81       71.56       71.31       71.05       70.79       70.53       70.27       70.00    
  17  -1000.0       79.21       79.19       79.16       79.12       79.07       79.00       78.92       78.82       78.71    
        78.59       78.46       78.31       78.15       77.98       77.79       77.61       77.41       77.22       77.01    
        76.81       76.59       76.38       76.16       75.94       75.71       75.49       75.27       75.05       74.83    
        74.61       74.39       74.16       73.94       73.71       73.49       73.26       73.02       72.79       72.55    
        72.32       72.07       71.83       71.58       71.32       71.07       70.80       70.54       70.27       70.00    
  18  -1000.0       79.30       79.29       79.26       79.22       79.17       79.10       79.02       78.92       78.81    
        78.69       78.55       78.40       78.24       78.07       77.88       77.69       77.49       77.29       77.08    
        76.87       76.65       76.42       76.20       75.97       75.75       75.52       75.30       75.07       74.85    
        74.63       74.41       74.18       73.96       73.74       73.51       73.28       73.05       72.81       72.58    
        72.34       72.10       71.85       71.60       71.34       71.08       70.82       70.55       70.28       70.00    
  19  -1000.0       79.41       79.40       79.37       79.33       79.27       79.20       79.12       79.03       78.92    
        78.79       78.65       78.50       78.34       78.16       77.97       77.78       77.57       77.37       77.15    
        76.93       76.70       76.47       76.24       76.01       75.78       75.55       75.32       75.10       74.87    
        74.65       74.43       74.21       73.99       73.76       73.53       73.30       73.07       72.84       72.60    
        72.36       72.12       71.88       71.63       71.37       71.10       70.83       70.56       70.28       70.00    
  20  -1000.0       79.53       79.51       79.48       79.44       79.39       79.32       79.24       79.14       79.03    
        78.90       78.76       78.61       78.44       78.26       78.07       77.87       77.66       77.45       77.23    
        77.00       76.76       76.52       76.29       76.05       75.81       75.58       75.35       75.12       74.90    
        74.68       74.46       74.24       74.01       73.79       73.56       73.33       73.10       72.86       72.63    
        72.40       72.16       71.91       71.66       71.40       71.13       70.86       70.57       70.29       70.00    
  21  -1000.0       79.65       79.63       79.61       79.56       79.51       79.44       79.36       79.26       79.15    
        79.02       78.88       78.72       78.55       78.37       78.17       77.97       77.76       77.54       77.31    
        77.07       76.82       76.57       76.33       76.08       75.84       75.60       75.37       75.15       74.92    
        74.70       74.49       74.27       74.05       73.82       73.60       73.37       73.13       72.88       72.66    
        72.43       72.20       71.95       71.70       71.44       71.17       70.88       70.59       70.30       70.00    
  22  -1000.0       79.78       79.76       79.74       79.69       79.64       79.57       79.48       79.38       79.27    
        79.14       79.00       78.84       78.67       78.48       78.28       78.07       77.85       77.63       77.39    
        77.14       76.88       76.63       76.37       76.11       75.87       75.63       75.40       75.17       74.95    
        74.74       74.52       74.30       74.09       73.87       73.64       73.41       73.16       72.88       72.70    
        72.49       72.25       72.01       71.75       71.49       71.21       70.92       70.62       70.31       70.00    
  23  -1000.0       79.91       79.90       79.87       79.83       79.77       79.70       79.62       79.52       79.41    
        79.28       79.13       78.97       78.80       78.60       78.40       78.18       77.95       77.72       77.47    
        77.22       76.96       76.69       76.43       76.16       75.91       75.67       75.44       75.22       75.00    
        74.79       74.57       74.36       74.15       73.94       73.72       73.49       73.25       73.01       72.79    
        72.57       72.33       72.09       71.83       71.56       71.28       70.98       70.67       70.34       70.00    
  24  -1000.0       80.06       80.04       80.02       79.97       79.92       79.85       79.76       79.66       79.55    
        79.42       79.27       79.11       78.93       78.74       78.52       78.30       78.07       77.83       77.58    
        77.32       77.06       76.78       76.50       76.23       75.97       75.73       75.50       75.28       75.07    
        74.86       74.65       74.45       74.24       74.03       73.82       73.60       73.37       73.14       72.91    
        72.68       72.44       72.20       71.94       71.67       71.38       71.08       70.75       70.39       70.00    
  25  -1000.0       80.21       80.20       80.17       80.13       80.07       80.00       79.91       79.82       79.70    
        79.57       79.42       79.26       79.08       78.88       78.66       78.44       78.21       77.97       77.71    
        77.46       77.19       76.91       76.60       76.30       76.06       75.81       75.58       75.37       75.16    
        74.96       74.76       74.56       74.36       74.16       73.95       73.74       73.52       73.29       73.06    
        72.83       72.59       72.34       72.08       71.81       71.52       71.22       70.88       70.50       70.00    
  26  -1000.0       80.06       80.04       80.01       79.97       79.92       79.85       79.76       79.66       79.55    
        79.42       79.27       79.10       78.92       78.72       78.51       78.28       78.05       77.81       77.56    
        77.30       77.03       76.76       76.48       76.20       75.95       75.70       75.47       75.25       75.04    
        74.83       74.63       74.42       74.22       74.01       73.80       73.58       73.36       73.13       72.90    
        72.67       72.43       72.18       71.92       71.65       71.36       71.06       70.74       70.38       70.00    
  27  -1000.0       79.91       79.90       79.87       79.83       79.77       79.70       79.62       79.52       79.40    
        79.27       79.13       78.96       78.78       78.58       78.37       78.15       77.91       77.67       77.43    
        77.17       76.91       76.65       76.38       76.12       75.87       75.63       75.39       75.17       74.95    
        74.74       74.53       74.32       74.11       73.90       73.68       73.46       73.24       73.01       72.78    
        72.55       72.30       72.05       71.80       71.53       71.25       70.96       70.65       70.33       70.00    
  28  -1000.0       79.77       79.76       79.73       79.69       79.63       79.56       79.48       79.38       79.27    
        79.14       78.99       78.83       78.65       78.46       78.25       78.03       77.80       77.57       77.33    
        77.08       76.83       76.57       76.31       76.06       75.81       75.57       75.34       75.11       74.89    
        74.67       74.46       74.25       74.03       73.82       73.60       73.38       73.16       72.93       72.70    
        72.46       72.22       71.97       71.71       71.45       71.17       70.89       70.60       70.30       70.00    
  29  -1000.0       79.64       79.63       79.60       79.56       79.50       79.43       79.35       79.25       79.14    
        79.01       78.87       78.71       78.54       78.35       78.14       77.93       77.71       77.48       77.25    
        77.01       76.77       76.52       76.27       76.03       75.78       75.54       75.31       75.08       74.86    
        74.64       74.42       74.20       73.99       73.77       73.55       73.33       73.10       72.87       72.64    
        72.40       72.16       71.91       71.66       71.40       71.13       70.85       70.57       70.28       70.00    
  30  -1000.0       79.52       79.51       79.48       79.44       79.38       79.31       79.23       79.13       79.02    
        78.89       78.75       78.60       78.43       78.24       78.04       77.84       77.62       77.40       77.18    
        76.95       76.71       76.47       76.23       75.99       75.75       75.51       75.28       75.05       74.83    
        74.61       74.39       74.17       73.95       73.73       73.51       73.29       73.06       72.83       72.60    
        72.36       72.12       71.87       71.62       71.36       71.09       70.83       70.55       70.28       70.00    
  31  -1000.0       79.40       79.39       79.36       79.32       79.27       79.20       79.12       79.02       78.91    
        78.79       78.65       78.49       78.33       78.15       77.95       77.75       77.54       77.33       77.11    
        76.88       76.65       76.42       76.19       75.95       75.71       75.48       75.25       75.02       74.80    
        74.58       74.36       74.14       73.92       73.70       73.48       73.25       73.02       72.79       72.56    
        72.32       72.08       71.84       71.58       71.33       71.07       70.81       70.54       70.27       70.00    
  32  -1000.0       79.30       79.28       79.25       79.21       79.16       79.09       79.01       78.91       78.81    
        78.68       78.55       78.40       78.23       78.06       77.87       77.67       77.47       77.26       77.04    
        76.82       76.60       76.38       76.15       75.92       75.68       75.45       75.23       75.00       74.78    
        74.56       74.34       74.11       73.89       73.67       73.45       73.22       73.00       72.76       72.53    
        72.29       72.05       71.81       71.56       71.31       71.05       70.79       70.53       70.27       70.00    
  33  -1000.0       79.19       79.18       79.15       79.11       79.06       78.99       78.91       78.82       78.71    
        78.59       78.45       78.31       78.15       77.97       77.79       77.59       77.39       77.19       76.98    
        76.77       76.55       76.33       76.11       75.88       75.65       75.43       75.20       74.98       74.76    
        74.54       74.31       74.09       73.87       73.65       73.43       73.20       72.97       72.74       72.51    
        72.27       72.03       71.79       71.54       71.29       71.04       70.78       70.52       70.26       70.00    
  34  -1000.0       79.10       79.09       79.06       79.02       78.97       78.90       78.82       78.73       78.62    
        78.50       78.37       78.22       78.07       77.89       77.71       77.52       77.33       77.13       76.92    
        76.72       76.50       76.29       76.07       75.85       75.62       75.40       75.18       74.96       74.74    
        74.52       74.30       74.08       73.85       73.63       73.41       73.18       72.95       72.72       72.49    
        72.25       72.01       71.77       71.52       71.28       71.03       70.77       70.52       70.26       70.00    
  35  -1000.0       79.01       79.00       78.97       78.93       78.88       78.81       78.73       78.64       78.54    
        78.42       78.29       78.15       77.99       77.82       77.64       77.46       77.27       77.07       76.87    
        76.67       76.46       76.25       76.03       75.82       75.60       75.38       75.16       74.94       74.72    
        74.50       74.28       74.06       73.84       73.61       73.39       73.16       72.93       72.70       72.47    
        72.23       72.00       71.75       71.51       71.26       71.02       70.76       70.51       70.26       70.00    
  36  -1000.0       78.93       78.92       78.89       78.85       78.80       78.73       78.65       78.56       78.46    
        78.34       78.21       78.07       77.92       77.76       77.58       77.40       77.21       77.02       76.82    
        76.62       76.42       76.21       76.00       75.78       75.57       75.35       75.14       74.92       74.70    
        74.48       74.26       74.04       73.82       73.60       73.37       73.15       72.92       72.69       72.45    
        72.22       71.98       71.74       71.50       71.25       71.01       70.76       70.51       70.25       70.00    
  37  -1000.0       78.86       78.84       78.82       78.78       78.72       78.66       78.58       78.49       78.39    
        78.27       78.15       78.01       77.86       77.69       77.52       77.34       77.16       76.97       76.77    
        76.58       76.38       76.17       75.96       75.76       75.54       75.33       75.12       74.90       74.68    
        74.47       74.25       74.03       73.80       73.58       73.36       73.13       72.90       72.67       72.44    
        72.20       71.97       71.73       71.49       71.24       71.00       70.75       70.50       70.25       70.00    
  38  -1000.0       78.79       78.78       78.75       78.71       78.66       78.59       78.51       78.42       78.32    
        78.21       78.08       77.95       77.80       77.64       77.47       77.29       77.11       76.92       76.73    
        76.54       76.34       76.14       75.93       75.73       75.52       75.31       75.09       74.88       74.67    
        74.45       74.23       74.01       73.79       73.57       73.34       73.12       72.89       72.66       72.43    
        72.19       71.96       71.72       71.48       71.24       70.99       70.75       70.50       70.25       70.00    
  39  -1000.0       78.73       78.72       78.69       78.65       78.59       78.53       78.45       78.36       78.26    
        78.15       78.03       77.89       77.74       77.59       77.42       77.24       77.06       76.88       76.69    
        76.50       76.31       76.11       75.91       75.70       75.49       75.29       75.07       74.86       74.65    
        74.43       74.21       74.00       73.78       73.55       73.33       73.10       72.88       72.65       72.42    
        72.18       71.95       71.71       71.47       71.23       70.99       70.74       70.50       70.25       70.00    
  40  -1000.0       78.68       78.67       78.64       78.59       78.54       78.47       78.39       78.31       78.21    
        78.09       77.97       77.84       77.69       77.54       77.37       77.20       77.02       76.84       76.66    
        76.47       76.27       76.08       75.88       75.68       75.47       75.26       75.06       74.84       74.63    
        74.42       74.20       73.98       73.76       73.54       73.32       73.09       72.86       72.64       72.40    
        72.17       71.94       71.70       71.46       71.22       70.98       70.74       70.49       70.25       70.00    
  41  -1000.0       78.65       78.62       78.59       78.54       78.49       78.42       78.34       78.25       78.15    
        78.05       77.92       77.79       77.65       77.50       77.33       77.16       76.99       76.81       76.62    
        76.44       76.25       76.05       75.85       75.65       75.45       75.25       75.04       74.83       74.62    
        74.40       74.19       73.97       73.75       73.53       73.31       73.08       72.85       72.63       72.40    
        72.16       71.93       71.69       71.46       71.22       70.98       70.73       70.49       70.25       70.00    
  42  -1000.0       78.60       78.58       78.54       78.50       78.44       78.37       78.29       78.21       78.11    
        78.00       77.88       77.75       77.61       77.46       77.29       77.13       76.95       76.78       76.59    
        76.41       76.22       76.03       75.83       75.63       75.43       75.23       75.02       74.81       74.60    
        74.39       74.17       73.96       73.74       73.52       73.30       73.07       72.85       72.62       72.39    
        72.16       71.92       71.69       71.45       71.21       70.97       70.73       70.49       70.24       70.00    
  43  -1000.0       78.57       78.54       78.50       78.45       78.39       78.33       78.25       78.16       78.07    
        77.96       77.84       77.71       77.57       77.42       77.26       77.09       76.92       76.75       76.57    
        76.39       76.20       76.01       75.81       75.62       75.42       75.21       75.01       74.80       74.59    
        74.38       74.16       73.95       73.73       73.51       73.29       73.06       72.84       72.61       72.38    
        72.15       71.92       71.68       71.45       71.21       70.97       70.73       70.49       70.24       70.00    
  44  -1000.0       78.54       78.51       78.47       78.41       78.35       78.28       78.21       78.12       78.03    
        77.92       77.81       77.68       77.54       77.39       77.23       77.07       76.90       76.72       76.55    
        76.36       76.18       75.99       75.80       75.60       75.40       75.20       75.00       74.79       74.58    
        74.37       74.15       73.94       73.72       73.50       73.28       73.06       72.83       72.60       72.37    
        72.14       71.91       71.68       71.44       71.20       70.97       70.73       70.49       70.24       70.00    
  45  -1000.0       78.52       78.48       78.44       78.38       78.31       78.24       78.17       78.08       77.99    
        77.89       77.77       77.65       77.51       77.37       77.21       77.05       76.88       76.70       76.53    
        76.35       76.16       75.97       75.78       75.59       75.39       75.19       74.99       74.78       74.57    
        74.36       74.15       73.93       73.71       73.49       73.27       73.05       72.83       72.60       72.37    
        72.14       71.91       71.67       71.44       71.20       70.96       70.72       70.48       70.24       70.00    
  46  -1000.0     -1000.0       78.45       78.41       78.35       78.28       78.20       78.13       78.05       77.96    
        77.86       77.75       77.63       77.49       77.35       77.19       77.03       76.86       76.69       76.51    
        76.33       76.15       75.96       75.77       75.58       75.38       75.18       74.98       74.77       74.56    
        74.35       74.14       73.93       73.71       73.49       73.27       73.05       72.82       72.59       72.37    
        72.14       71.90       71.67       71.44       71.20       70.96       70.72       70.48       70.24       70.00    
  47  -1000.0     -1000.0     -1000.0       78.37       78.32       78.25       78.18       78.10       78.02       77.93    
        77.83       77.73       77.61       77.47       77.33       77.17       77.01       76.85       76.68       76.50    
        76.32       76.14       75.95       75.76       75.57       75.37       75.17       74.97       74.77       74.56    
        74.35       74.14       73.92       73.70       73.49       73.26       73.04       72.82       72.59       72.36    
        72.13       71.90       71.67       71.43       71.20       70.96       70.72       70.48       70.24       70.00    
  48  -1000.0     -1000.0     -1000.0     -1000.0       78.28       78.23       78.16       78.08       77.99       77.91    
        77.81       77.71       77.59       77.46       77.32       77.16       77.00       76.84       76.67       76.49    
        76.32       76.13       75.95       75.76       75.56       75.37       75.17       74.97       74.76       74.55    
        74.34       74.13       73.92       73.70       73.48       73.26       73.04       72.82       72.59       72.36    
        72.13       71.90       71.67       71.43       71.20       70.96       70.72       70.48       70.24       70.00    
  49  -1000.0     -1000.0     -1000.0     -1000.0     -1000.0       78.19       78.15       78.07       77.99       77.88    
        77.80       77.70       77.59       77.46       77.31       77.16       77.00       76.83       76.66       76.49    
        76.31       76.13       75.94       75.75       75.56       75.37       75.17       74.96       74.76       74.55    
        74.34       74.13       73.92       73.70       73.48       73.26       73.04       72.81       72.59       72.36    
        72.13       71.90       71.67       71.43       71.20       70.96       70.72       70.48       70.24       70.00    
  50  -1000.0     -1000.0     -1000.0     -1000.0     -1000.0     -1000.0     -1000.0     -1000.0     -1000.0     -1000.0    
      -1000.0     -1000.0     -1000.0     -1000.0     -1000.0     -1000.0     -1000.0     -1000.0     -1000.0     -1000.0    
      -1000.0     -1000.0     -1000.0     -1000.0     -1000.0     -1000.0     -1000.0     -1000.0     -1000.0     -1000.0    
      -1000.0     -1000.0     -1000.0     -1000.0     -1000.0     -1000.0     -1000.0     -1000.0     -1000.0     -1000.0    
      -1000.0     -1000.0     -1000.0     -1000.0     -1000.0     -1000.0     -1000.0     -1000.0     -1000.0       70.00    
1
              HEAD IN LAYER   2 AT END OF TIME STEP   1 IN STRESS PERIOD    1
  ---------------------------------------------------------------------------

            1           2           3           4           5           6           7           8           9          10
           11          12          13          14          15          16          17          18          19          20
           21          22          23          24          25          26          27          28          29          30
           31          32          33          34          35          36          37          38          39          40
           41          42          43          44          45          46          47          48          49          50
 ........................................................................................................................
   1  -1000.0     -1000.0     -1000.0     -1000.0     -1000.0     -1000.0     -1000.0     -1000.0     -1000.0     -1000.0    
      -1000.0     -1000.0     -1000.0     -1000.0     -1000.0     -1000.0     -1000.0     -1000.0     -1000.0     -1000.0    
      -1000.0     -1000.0     -1000.0     -1000.0     -1000.0     -1000.0     -1000.0     -1000.0     -1000.0     -1000.0    
      -1000.0     -1000.0     -1000.0     -1000.0     -1000.0     -1000.0     -1000.0     -1000.0     -1000.0     -1000.0    
      -1000.0     -1000.0     -1000.0     -1000.0     -1000.0     -1000.0     -1000.0     -1000.0     -1000.0       70.00    
   2  -1000.0     -1000.0     -1000.0     -1000.0     -1000.0     -1000.0     -1000.0       78.14       78.05       77.94    
        77.86       77.76       77.64       77.51       77.37       77.22       77.06       76.89       76.72       76.55    
        76.37       76.19       76.00       75.81       75.62       75.43       75.23       75.03       74.82       74.61    
        74.40       74.19       73.97       73.75       73.53       73.31       73.09       72.86       72.63       72.40    
        72.17       71.93       71.70       71.46       71.22       70.98       70.73       70.49       70.25       70.00    
   3  -1000.0     -1000.0     -1000.0     -1000.0     -1000.0     -1000.0       78.23       78.15       78.05       77.97    
        77.87       77.77       77.65       77.52       77.38       77.22       77.06       76.90       76.73       76.55    
        76.37       76.19       76.01       75.82       75.63       75.43       75.23       75.03       74.82       74.61    
        74.40       74.19       73.97       73.76       73.54       73.31       73.09       72.86       72.63       72.40    
        72.17       71.93       71.70       71.46       71.22       70.98       70.74       70.49       70.25       70.00    
   4  -1000.0     -1000.0     -1000.0     -1000.0     -1000.0       78.32       78.25       78.16       78.08       77.99    
        77.89       77.79       77.66       77.53       77.39       77.23       77.07       76.90       76.73       76.56    
        76.38       76.20       76.01       75.82       75.63       75.43       75.23       75.03       74.83       74.62    
        74.41       74.19       73.98       73.76       73.54       73.32       73.09       72.86       72.63       72.40    
        72.17       71.94       71.70       71.46       71.22       70.98       70.74       70.49       70.25       70.00    
   5  -1000.0     -1000.0     -1000.0     -1000.0       78.42       78.35       78.27       78.19       78.11       78.02    
        77.92       77.81       77.68       77.55       77.40       77.25       77.08       76.92       76.75       76.57    
        76.39       76.21       76.02       75.83       75.64       75.44       75.24       75.04       74.83       74.62    
        74.41       74.20       73.98       73.76       73.54       73.32       73.10       72.87       72.64       72.41    
        72.17       71.94       71.70       71.46       71.22       70.98       70.74       70.49       70.25       70.00    
   6  -1000.0     -1000.0     -1000.0       78.51       78.45       78.38       78.31       78.23       78.15       78.05    
        77.95       77.83       77.71       77.57       77.42       77.26       77.10       76.93       76.76       76.59    
        76.41       76.22       76.04       75.84       75.65       75.45       75.25       75.05       74.84       74.63    
        74.42       74.21       73.99       73.77       73.55       73.33       73.10       72.87       72.64       72.41    
        72.18       71.94       71.71       71.47       71.23       70.98       70.74       70.49       70.25       70.00    
   7  -1000.0     -1000.0       78.59       78.54       78.48       78.42       78.35       78.27       78.19       78.09    
        77.98       77.86       77.73       77.60       77.45       77.29       77.12       76.95       76.78       76.60    
        76.42       76.24       76.05       75.86       75.66       75.47       75.26       75.06       74.85       74.64    
        74.43       74.22       74.00       73.78       73.56       73.33       73.11       72.88       72.65       72.42    
        72.18       71.95       71.71       71.47       71.23       70.99       70.74       70.50       70.25       70.00    
   8  -1000.0       78.64       78.62       78.58       78.53       78.46       78.39       78.32       78.23       78.13    
        78.02       77.90       77.77       77.62       77.47       77.31       77.15       76.98       76.80       76.63    
        76.44       76.26       76.07       75.88       75.68       75.48       75.28       75.07       74.87       74.66    
        74.44       74.23       74.01       73.79       73.57       73.34       73.12       72.89       72.66       72.43    
        72.19       71.95       71.72       71.48       71.23       70.99       70.74       70.50       70.25       70.00    
   9  -1000.0       78.68       78.66       78.62       78.57       78.51       78.44       78.36       78.27       78.17    
        78.06       77.94       77.80       77.66       77.50       77.34       77.17       77.00       76.83       76.65    
        76.47       76.28       76.09       75.90       75.70       75.50       75.30       75.09       74.88       74.67    
        74.46       74.24       74.02       73.80       73.58       73.35       73.13       72.90       72.67       72.43    
        72.20       71.96       71.72       71.48       71.24       70.99       70.75       70.50       70.25       70.00    
  10  -1000.0       78.73       78.70       78.67       78.62       78.56       78.49       78.41       78.32       78.22    
        78.10       77.98       77.84       77.69       77.54       77.37       77.21       77.04       76.86       76.68    
        76.50       76.31       76.12       75.92       75.72       75.52       75.32       75.11       74.90       74.68    
        74.47       74.25       74.03       73.81       73.59       73.37       73.14       72.91       72.68       72.44    
        72.21       71.97       71.73       71.49       71.24       71.00       70.75       70.50       70.25       70.00    
  11  -1000.0       78.77       78.75       78.72       78.67       78.61       78.55       78.47       78.37       78.27    
        78.15       78.02       77.88       77.73       77.57       77.41       77.24       77.07       76.90       76.72    
        76.53       76.34       76.15       75.95       75.75       75.54       75.34       75.13       74.92       74.70    
        74.49       74.27       74.05       73.83       73.60       73.38       73.15       72.92       72.69       72.45    
        72.22       71.98       71.74       71.50       71.25       71.00       70.76       70.50       70.25       70.00    
  12  -1000.0       78.82       78.80       78.77       78.73       78.67       78.61       78.53       78.43       78.33    
        78.21       78.08       77.93       77.77       77.60       77.44       77.28       77.11       76.94       76.75    
        76.57       76.37       76.18       75.98       75.77       75.57       75.36       75.15       74.94       74.72    
        74.50       74.29       74.07       73.84       73.62       73.39       73.16       72.93       72.70       72.47    
        72.23       71.99       71.75       71.51       71.26       71.01       70.76       70.51       70.25       70.00    
  13  -1000.0       78.88       78.87       78.84       78.79       78.74       78.67       78.59       78.50       78.39    
        78.27       78.14       77.99       77.82       77.61       77.48       77.33       77.16       76.98       76.80    
        76.61       76.41       76.21       76.01       75.80       75.59       75.38       75.17       74.96       74.74    
        74.52       74.30       74.08       73.86       73.64       73.41       73.18       72.95       72.72       72.48    
        72.24       72.00       71.76       71.52       71.27       71.02       70.77       70.51       70.26       70.00    
  14  -1000.0       78.95       78.94       78.91       78.87       78.81       78.74       78.66       78.57       78.46    
        78.34       78.21       78.06       77.89       77.72       77.56       77.39       77.21       77.03       76.84    
        76.65       76.45       76.25       76.04       75.83       75.62       75.41       75.20       74.98       74.76    
        74.54       74.32       74.10       73.88       73.65       73.43       73.20       72.97       72.73       72.50    
        72.26       72.02       71.77       71.53       71.28       71.03       70.77       70.52       70.26       70.00    
  15  -1000.0       79.03       79.01       78.99       78.94       78.89       78.82       78.74       78.65       78.54    
        78.42       78.28       78.14       77.98       77.81       77.63       77.46       77.28       77.09       76.90    
        76.70       76.50       76.29       76.08       75.87       75.65       75.44       75.22       75.00       74.78    
        74.56       74.34       74.12       73.90       73.67       73.44       73.22       72.98       72.75       72.51    
        72.28       72.03       71.79       71.54       71.29       71.04       70.78       70.52       70.26       70.00    
  16  -1000.0       79.11       79.10       79.07       79.03       78.98       78.91       78.83       78.73       78.62    
        78.50       78.37       78.22       78.06       77.89       77.71       77.53       77.34       77.15       76.95    
        76.75       76.54       76.33       76.12       75.90       75.68       75.47       75.25       75.03       74.81    
        74.59       74.36       74.14       73.92       73.69       73.46       73.23       73.00       72.77       72.53    
        72.29       72.05       71.81       71.56       71.31       71.05       70.79       70.53       70.27       70.00    
  17  -1000.0       79.21       79.19       79.16       79.12       79.07       79.00       78.92       78.82       78.71    
        78.59       78.46       78.31       78.15       77.98       77.79       77.61       77.41       77.22       77.01    
        76.81       76.59       76.38       76.16       75.94       75.71       75.49       75.27       75.05       74.83    
        74.61       74.39       74.16       73.94       73.71       73.49       73.26       73.02       72.79       72.55    
        72.32       72.07       71.83       71.58       71.32       71.07       70.80       70.54       70.27       70.00    
  18  -1000.0       79.30       79.29       79.26       79.22       79.17       79.10       79.02       78.92       78.81    
        78.69       78.55       78.40       78.24       78.07       77.88       77.69       77.49       77.29       77.08    
        76.87       76.65       76.42       76.20       75.97       75.75       75.52       75.30       75.07       74.85    
        74.63       74.41       74.18       73.96       73.74       73.51       73.28       73.05       72.81       72.58    
        72.34       72.10       71.85       71.60       71.34       71.08       70.82       70.55       70.28       70.00    
  19  -1000.0       79.41       79.40       79.37       79.33       79.27       79.20       79.12       79.03       78.92    
        78.79       78.65       78.50       78.34       78.16       77.97       77.78       77.57       77.37       77.15    
        76.93       76.70       76.47       76.24       76.01       75.78       75.55       75.32       75.10       74.87    
        74.65       74.43       74.21       73.99       73.76       73.53       73.30       73.07       72.84       72.60    
        72.36       72.12       71.88       71.63       71.37       71.10       70.83       70.56       70.28       70.00    
  20  -1000.0       79.53       79.51       79.48       79.44       79.39       79.32       79.24       79.14       79.03    
        78.90       78.76       78.61       78.44       78.26       78.07       77.87       77.66       77.45       77.23    
        77.00       76.76       76.52       76.29       76.05       75.81       75.58       75.35       75.12       74.90    
        74.68       74.46       74.24       74.01       73.79       73.56       73.33       73.10       72.86       72.63    
        72.40       72.16       71.91       71.66       71.40       71.13       70.86       70.57       70.29       70.00    
  21  -1000.0       79.65       79.63       79.61       79.56       79.51       79.44       79.36       79.26       79.15    
        79.02       78.88       78.72       78.55       78.37       78.17       77.97       77.76       77.54       77.31    
        77.07       76.82       76.57       76.33       76.08       75.84       75.60       75.37       75.15       74.92    
        74.70       74.49       74.27       74.05       73.82       73.60       73.37       73.13       72.88       72.66    
        72.43       72.20       71.95       71.70       71.44       71.17       70.88       70.59       70.30       70.00    
  22  -1000.0       79.78       79.76       79.74       79.69       79.64       79.57       79.48       79.38       79.27    
        79.14       79.00       78.84       78.67       78.48       78.28       78.07       77.85       77.63       77.39    
        77.14       76.88       76.63       76.37       76.11       75.87       75.63       75.40       75.17       74.95    
        74.74       74.52       74.30       74.09       73.87       73.64       73.41       73.16       72.88       72.70    
        72.49       72.25       72.01       71.75       71.49       71.21       70.92       70.62       70.31       70.00    
  23  -1000.0       79.91       79.90       79.87       79.83       79.77       79.70       79.62       79.52       79.41    
        79.28       79.13       78.97       78.80       78.60       78.40       78.18       77.95       77.72       77.47    
        77.22       76.96       76.69       76.43       76.16       75.91       75.67       75.44       75.22       75.00    
        74.79       74.57       74.36       74.15       73.94       73.72       73.49       73.25       73.01       72.79    
        72.57       72.33       72.09       71.83       71.56       71.28       70.98       70.67       70.34       70.00    
  24  -1000.0       80.06       80.04       80.02       79.97       79.92       79.85       79.76       79.66       79.55    
        79.42       79.27       79.11       78.93       78.74       78.52       78.30       78.07       77.83       77.58    
        77.32       77.06       76.78       76.50       76.23       75.97       75.73       75.50       75.28       75.07    
        74.86       74.65       74.45       74.24       74.03       73.82       73.60       73.37       73.14       72.91    
        72.68       72.44       72.20       71.94       71.67       71.38       71.08       70.75       70.39       70.00    
  25  -1000.0       80.21       80.20       80.17       80.13       80.07       80.00       79.91       79.81       79.70    
        79.57       79.42       79.26       79.08       78.88       78.66       78.44       78.21       77.96       77.71    
        77.46       77.19       76.91       76.60       76.30       76.06       75.81       75.58       75.37       75.16    
        74.96       74.76       74.56       74.36       74.16       73.95       73.74       73.52       73.29       73.06    
        72.83       72.59       72.34       72.08       71.81       71.52       71.22       70.88       70.50       70.00    
  26  -1000.0       80.06       80.04       80.01       79.97       79.92       79.85       79.76       79.66       79.55    
        79.42       79.27       79.10       78.92       78.72       78.51       78.28       78.05       77.81       77.56    
        77.30       77.03       76.76       76.48       76.20       75.95       75.70       75.47       75.25       75.04    
        74.83       74.63       74.42       74.22       74.01       73.80       73.58       73.36       73.13       72.90    
        72.67       72.43       72.18       71.92       71.65       71.36       71.06       70.74       70.38       70.00    
  27  -1000.0       79.91       79.90       79.87       79.83       79.77       79.70       79.62       79.52       79.40    
        79.27       79.13       78.96       78.78       78.58       78.37       78.15       77.91       77.67       77.43    
        77.17       76.91       76.65       76.38       76.12       75.87       75.63       75.39       75.17       74.95    
        74.74       74.53       74.32       74.11       73.90       73.68       73.46       73.24       73.01       72.78    
        72.55       72.30       72.05       71.80       71.53       71.25       70.96       70.65       70.33       70.00    
  28  -1000.0       79.77       79.76       79.73       79.69       79.63       79.56       79.48       79.38       79.27    
        79.14       78.99       78.83       78.65       78.46       78.25       78.03       77.80       77.57       77.33    
        77.08       76.83       76.57       76.31       76.06       75.81       75.57       75.34       75.11       74.89    
        74.67       74.46       74.25       74.03       73.82       73.60       73.38       73.16       72.93       72.70    
        72.46       72.22       71.97       71.71       71.45       71.17       70.89       70.60       70.30       70.00    
  29  -1000.0       79.64       79.63       79.60       79.56       79.50       79.43       79.35       79.25       79.14    
        79.01       78.87       78.71       78.54       78.35       78.14       77.93       77.71       77.48       77.25    
        77.01       76.77       76.52       76.27       76.03       75.78       75.54       75.31       75.08       74.86    
        74.64       74.42       74.20       73.99       73.77       73.55       73.33       73.10       72.87       72.64    
        72.40       72.16       71.91       71.66       71.40       71.13       70.85       70.57       70.28       70.00    
  30  -1000.0       79.52       79.51       79.48       79.44       79.38       79.31       79.23       79.13       79.02    
        78.89       78.75       78.60       78.43       78.24       78.04       77.84       77.62       77.40       77.18    
        76.95       76.71       76.47       76.23       75.99       75.75       75.51       75.28       75.05       74.83    
        74.61       74.39       74.17       73.95       73.73       73.51       73.29       73.06       72.83       72.60    
        72.36       72.12       71.87       71.62       71.36       71.09       70.83       70.55       70.28       70.00    
  31  -1000.0       79.40       79.39       79.36       79.32       79.27       79.20       79.12       79.02       78.91    
        78.79       78.65       78.49       78.33       78.15       77.95       77.75       77.54       77.33       77.11    
        76.88       76.65       76.42       76.19       75.95       75.71       75.48       75.25       75.02       74.80    
        74.58       74.36       74.14       73.92       73.70       73.48       73.25       73.02       72.79       72.56    
        72.32       72.08       71.84       71.58       71.33       71.07       70.81       70.54       70.27       70.00    
  32  -1000.0       79.30       79.28       79.25       79.21       79.16       79.09       79.01       78.91       78.81    
        78.68       78.55       78.40       78.23       78.06       77.87       77.67       77.47       77.26       77.04    
        76.82       76.60       76.38       76.15       75.92       75.68       75.45       75.23       75.00       74.78    
        74.56       74.34       74.11       73.89       73.67       73.45       73.22       73.00       72.76       72.53    
        72.29       72.05       71.81       71.56       71.31       71.05       70.79       70.53       70.27       70.00    
  33  -1000.0       79.19       79.18       79.15       79.11       79.06       78.99       78.91       78.82       78.71    
        78.59       78.45       78.31       78.15       77.97       77.79       77.59       77.39       77.19       76.98    
        76.77       76.55       76.33       76.11       75.88       75.65       75.43       75.20       74.98       74.76    
        74.54       74.31       74.09       73.87       73.65       73.43       73.20       72.97       72.74       72.51    
        72.27       72.03       71.79       71.54       71.29       71.04       70.78       70.52       70.26       70.00    
  34  -1000.0       79.10       79.09       79.06       79.02       78.97       78.90       78.82       78.73       78.62    
        78.50       78.37       78.22       78.07       77.89       77.71       77.52       77.33       77.13       76.92    
        76.72       76.50       76.29       76.07       75.85       75.62       75.40       75.18       74.96       74.74    
        74.52       74.30       74.08       73.85       73.63       73.41       73.18       72.95       72.72       72.49    
        72.25       72.01       71.77       71.52       71.28       71.03       70.77       70.52       70.26       70.00    
  35  -1000.0       79.01       79.00       78.97       78.93       78.88       78.81       78.73       78.64       78.54    
        78.42       78.29       78.15       77.99       77.82       77.64       77.46       77.27       77.07       76.87    
        76.67       76.46       76.25       76.03       75.82       75.60       75.38       75.16       74.94       74.72    
        74.50       74.28       74.06       73.84       73.61       73.39       73.16       72.93       72.70       72.47    
        72.23       72.00       71.75       71.51       71.26       71.02       70.76       70.51       70.26       70.00    
  36  -1000.0       78.93       78.92       78.89       78.85       78.80       78.73       78.65       78.56       78.46    
        78.34       78.21       78.07       77.92       77.76       77.58       77.40       77.21       77.02       76.82    
        76.62       76.42       76.21       76.00       75.78       75.57       75.35       75.14       74.92       74.70    
        74.48       74.26       74.04       73.82       73.60       73.37       73.15       72.92       72.69       72.45    
        72.22       71.98       71.74       71.50       71.25       71.01       70.76       70.51       70.25       70.00    
  37  -1000.0       78.86       78.84       78.82       78.78       78.72       78.66       78.58       78.49       78.39    
        78.27       78.15       78.01       77.86       77.69       77.52       77.34       77.16       76.97       76.77    
        76.58       76.38       76.17       75.96       75.76       75.54       75.33       75.12       74.90       74.68    
        74.47       74.25       74.03       73.80       73.58       73.36       73.13       72.90       72.67       72.44    
        72.20       71.97       71.73       71.49       71.24       71.00       70.75       70.50       70.25       70.00    
  38  -1000.0       78.79       78.78       78.75       78.71       78.66       78.59       78.51       78.42       78.32    
        78.21       78.08       77.95       77.80       77.64       77.47       77.29       77.11       76.92       76.73    
        76.54       76.34       76.14       75.93       75.73       75.52       75.31       75.09       74.88       74.67    
        74.45       74.23       74.01       73.79       73.57       73.34       73.12       72.89       72.66       72.43    
        72.19       71.96       71.72       71.48       71.24       70.99       70.75       70.50       70.25       70.00    
  39  -1000.0       78.73       78.72       78.69       78.65       78.59       78.53       78.45       78.36       78.26    
        78.15       78.03       77.89       77.74       77.59       77.42       77.24       77.06       76.88       76.69    
        76.50       76.31       76.11       75.91       75.70       75.49       75.29       75.07       74.86       74.65    
        74.43       74.21       74.00       73.78       73.55       73.33       73.10       72.88       72.65       72.42    
        72.18       71.95       71.71       71.47       71.23       70.99       70.74       70.50       70.25       70.00    
  40  -1000.0       78.68       78.67       78.64       78.59       78.54       78.47       78.39       78.31       78.21    
        78.09       77.97       77.84       77.69       77.54       77.37       77.20       77.02       76.84       76.66    
        76.47       76.27       76.08       75.88       75.68       75.47       75.26       75.06       74.84       74.63    
        74.42       74.20       73.98       73.76       73.54       73.32       73.09       72.86       72.64       72.40    
        72.17       71.94       71.70       71.46       71.22       70.98       70.74       70.49       70.25       70.00    
  41  -1000.0       78.65       78.62       78.59       78.54       78.49       78.42       78.34       78.25       78.15    
        78.05       77.92       77.79       77.65       77.50       77.33       77.16       76.99       76.81       76.62    
        76.44       76.25       76.05       75.85       75.65       75.45       75.25       75.04       74.83       74.62    
        74.40       74.19       73.97       73.75       73.53       73.31       73.08       72.85       72.63       72.40    
        72.16       71.93       71.69       71.46       71.22       70.98       70.73       70.49       70.25       70.00    
  42  -1000.0       78.60       78.58       78.54       78.50       78.44       78.37       78.29       78.21       78.11    
        78.00       77.88       77.75       77.61       77.46       77.29       77.13       76.95       76.78       76.59    
        76.41       76.22       76.03       75.83       75.63       75.43       75.23       75.02       74.81       74.60    
        74.39       74.17       73.96       73.74       73.52       73.30       73.07       72.85       72.62       72.39    
        72.16       71.92       71.69       71.45       71.21       70.97       70.73       70.49       70.24       70.00    
  43  -1000.0       78.57       78.54       78.50       78.45       78.39       78.33       78.25       78.16       78.07    
        77.96       77.84       77.71       77.57       77.42       77.26       77.09       76.92       76.75       76.57    
        76.39       76.20       76.01       75.81       75.62       75.42       75.21       75.01       74.80       74.59    
        74.38       74.16       73.95       73.73       73.51       73.29       73.06       72.84       72.61       72.38    
        72.15       71.92       71.68       71.45       71.21       70.97       70.73       70.49       70.24       70.00    
  44  -1000.0     -1000.0       78.51       78.47       78.41       78.35       78.28       78.21       78.12       78.03    
        77.92       77.81       77.68       77.54       77.39       77.23       77.07       76.90       76.72       76.55    
        76.36       76.18       75.99       75.80       75.60       75.40       75.20       75.00       74.79       74.58    
        74.37       74.15       73.94       73.72       73.50       73.28       73.06       72.83       72.60       72.37    
        72.14       71.91       71.68       71.44       71.20       70.97       70.73       70.49       70.24       70.00    
  45  -1000.0     -1000.0     -1000.0       78.44       78.38       78.31       78.24       78.17       78.08       77.99    
        77.89       77.77       77.65       77.51       77.37       77.21       77.05       76.88       76.70       76.53    
        76.35       76.16       75.97       75.78       75.59       75.39       75.19       74.99       74.78       74.57    
        74.36       74.15       73.93       73.71       73.49       73.27       73.05       72.83       72.60       72.37    
        72.14       71.91       71.67       71.44       71.20       70.96       70.72       70.48       70.24       70.00    
  46  -1000.0     -1000.0     -1000.0     -1000.0       78.35       78.28       78.20       78.13       78.05       77.96    
        77.86       77.75       77.63       77.49       77.35       77.19       77.03       76.86       76.69       76.51    
        76.33       76.15       75.96       75.77       75.58       75.38       75.18       74.98       74.77       74.56    
        74.35       74.14       73.93       73.71       73.49       73.27       73.05       72.82       72.59       72.37    
        72.14       71.90       71.67       71.44       71.20       70.96       70.72       70.48       70.24       70.00    
  47  -1000.0     -1000.0     -1000.0     -1000.0     -1000.0       78.25       78.18       78.10       78.02       77.93    
        77.83       77.73       77.61       77.47       77.33       77.17       77.01       76.85       76.68       76.50    
        76.32       76.14       75.95       75.76       75.57       75.37       75.17       74.97       74.77       74.56    
        74.35       74.14       73.92       73.70       73.49       73.26       73.04       72.82       72.59       72.36    
        72.13       71.90       71.67       71.43       71.20       70.96       70.72       70.48       70.24       70.00    
  48  -1000.0     -1000.0     -1000.0     -1000.0     -1000.0     -1000.0       78.16       78.08       77.99       77.91    
        77.81       77.71       77.59       77.46       77.32       77.16       77.00       76.84       76.67       76.49    
        76.32       76.13       75.95       75.76       75.56       75.37       75.17       74.97       74.76       74.55    
        74.34       74.13       73.92       73.70       73.48       73.26       73.04       72.82       72.59       72.36    
        72.13       71.90       71.67       71.43       71.20       70.96       70.72       70.48       70.24       70.00    
  49  -1000.0     -1000.0     -1000.0     -1000.0     -1000.0     -1000.0     -1000.0       78.07       77.99       77.88    
        77.80       77.70       77.59       77.46       77.31       77.16       77.00       76.83       76.66       76.49    
        76.31       76.13       75.94       75.75       75.56       75.37       75.17       74.96       74.76       74.55    
        74.34       74.13       73.92       73.70       73.48       73.26       73.04       72.81       72.59       72.36    
        72.13       71.90       71.67       71.43       71.20       70.96       70.72       70.48       70.24       70.00    
  50  -1000.0     -1000.0     -1000.0     -1000.0     -1000.0     -1000.0     -1000.0     -1000.0     -1000.0     -1000.0    
      -1000.0     -1000.0     -1000.0     -1000.0     -1000.0     -1000.0     -1000.0     -1000.0     -1000.0     -1000.0    
      -1000.0     -1000.0     -1000.0     -1000.0     -1000.0     -1000.0     -1000.0     -1000.0     -1000.0     -1000.0    
      -1000.0     -1000.0     -1000.0     -1000.0     -1000.0     -1000.0     -1000.0     -1000.0     -1000.0     -1000.0    
      -1000.0     -1000.0     -1000.0     -1000.0     -1000.0     -1000.0     -1000.0     -1000.0     -1000.0       70.00    
1
              HEAD IN LAYER   3 AT END OF TIME STEP   1 IN STRESS PERIOD    1
  ---------------------------------------------------------------------------

            1           2           3           4           5           6           7           8           9          10
           11          12          13          14          15          16          17          18          19          20
           21          22          23          24          25          26          27          28          29          30
           31          32          33          34          35          36          37          38          39          40
[...]
        77.22       76.96       76.69       76.43       76.16       75.91       75.67       75.44       75.22       75.00    
        74.79       74.57       74.36       74.15       73.94       73.72       73.49       73.25       73.01       72.79    
        72.57       72.33       72.09       71.83       71.56       71.28       70.98       70.67       70.34       70.00    
  24  -1000.0       80.06       80.04       80.02       79.97       79.92       79.85       79.76       79.66       79.55    
        79.42       79.27       79.11       78.93       78.74       78.52       78.30       78.07       77.83       77.58    
        77.32       77.06       76.78       76.50       76.23       75.97       75.73       75.50       75.28       75.07    
        74.86       74.65       74.45       74.24       74.03       73.82       73.60       73.37       73.14       72.91    
        72.68       72.44       72.20       71.94       71.67       71.38       71.08       70.75       70.39       70.00    
  25  -1000.0       80.21       80.20       80.17       80.13       80.07       80.00       79.91       79.81       79.70    
        79.57       79.42       79.26       79.08       78.88       78.66       78.44       78.21       77.96       77.71    
        77.45       77.19       76.91       76.60       76.30       76.06       75.81       75.58       75.37       75.16    
        74.96       74.76       74.56       74.36       74.16       73.95       73.74       73.52       73.29       73.06    
        72.83       72.59       72.34       72.08       71.81       71.52       71.22       70.88       70.50       70.00    
  26  -1000.0       80.06       80.04       80.01       79.97       79.92       79.85       79.76       79.66       79.55    
        79.42       79.27       79.10       78.92       78.72       78.51       78.28       78.05       77.81       77.56    
        77.30       77.03       76.76       76.48       76.20       75.95       75.70       75.47       75.25       75.04    
        74.83       74.63       74.42       74.22       74.01       73.80       73.58       73.36       73.13       72.90    
        72.67       72.43       72.18       71.92       71.65       71.36       71.06       70.74       70.38       70.00    
  27  -1000.0       79.91       79.90       79.87       79.83       79.77       79.70       79.62       79.52       79.40    
        79.27       79.13       78.96       78.78       78.58       78.37       78.15       77.91       77.67       77.43    
        77.17       76.91       76.65       76.38       76.12       75.87       75.63       75.39       75.17       74.95    
        74.74       74.53       74.32       74.11       73.90       73.68       73.46       73.24       73.01       72.78    
        72.55       72.30       72.05       71.80       71.53       71.25       70.96       70.65       70.33       70.00    
  28  -1000.0       79.77       79.76       79.73       79.69       79.63       79.56       79.48       79.38       79.27    
        79.14       78.99       78.83       78.65       78.46       78.25       78.03       77.80       77.57       77.33    
        77.08       76.83       76.57       76.31       76.06       75.81       75.57       75.34       75.11       74.89    
        74.67       74.46       74.25       74.03       73.82       73.60       73.38       73.16       72.93       72.70    
        72.46       72.22       71.97       71.71       71.45       71.17       70.89       70.60       70.30       70.00    
  29  -1000.0       79.64       79.63       79.60       79.56       79.50       79.43       79.35       79.25       79.14    
        79.01       78.87       78.71       78.54       78.35       78.14       77.93       77.71       77.48       77.25    
        77.01       76.77       76.52       76.27       76.03       75.78       75.54       75.31       75.08       74.86    
        74.64       74.42       74.20       73.99       73.77       73.55       73.33       73.10       72.87       72.64    
        72.40       72.16       71.91       71.66       71.40       71.13       70.85       70.57       70.28       70.00    
  30  -1000.0       79.52       79.51       79.48       79.44       79.38       79.31       79.23       79.13       79.02    
        78.89       78.75       78.60       78.43       78.24       78.04       77.84       77.62       77.40       77.18    
        76.95       76.71       76.47       76.23       75.99       75.75       75.51       75.28       75.05       74.83    
        74.61       74.39       74.17       73.95       73.73       73.51       73.29       73.06       72.83       72.60    
        72.36       72.12       71.87       71.62       71.36       71.09       70.83       70.55       70.28       70.00    
  31  -1000.0       79.40       79.39       79.36       79.32       79.27       79.20       79.12       79.02       78.91    
        78.79       78.65       78.49       78.33       78.15       77.95       77.75       77.54       77.33       77.11    
        76.88       76.65       76.42       76.19       75.95       75.71       75.48       75.25       75.02       74.80    
        74.58       74.36       74.14       73.92       73.70       73.48       73.25       73.02       72.79       72.56    
        72.32       72.08       71.84       71.58       71.33       71.07       70.81       70.54       70.27       70.00    
  32  -1000.0       79.30       79.28       79.25       79.21       79.16       79.09       79.01       78.91       78.81    
        78.68       78.55       78.40       78.23       78.06       77.87       77.67       77.47       77.26       77.04    
        76.82       76.60       76.38       76.15       75.92       75.68       75.45       75.23       75.00       74.78    
        74.56       74.34       74.11       73.89       73.67       73.45       73.22       73.00       72.76       72.53    
        72.29       72.05       71.81       71.56       71.31       71.05       70.79       70.53       70.27       70.00    
  33  -1000.0       79.19       79.18       79.15       79.11       79.06       78.99       78.91       78.82       78.71    
        78.59       78.45       78.31       78.15       77.97       77.79       77.59       77.39       77.19       76.98    
        76.77       76.55       76.33       76.11       75.88       75.65       75.43       75.20       74.98       74.76    
        74.54       74.31       74.09       73.87       73.65       73.43       73.20       72.97       72.74       72.51    
        72.27       72.03       71.79       71.54       71.29       71.04       70.78       70.52       70.26       70.00    
  34  -1000.0       79.10       79.09       79.06       79.02       78.97       78.90       78.82       78.73       78.62    
        78.50       78.37       78.22       78.07       77.89       77.71       77.52       77.33       77.13       76.92    
        76.72       76.50       76.29       76.07       75.85       75.62       75.40       75.18       74.96       74.74    
        74.52       74.30       74.08       73.85       73.63       73.41       73.18       72.95       72.72       72.49    
        72.25       72.01       71.77       71.52       71.28       71.03       70.77       70.52       70.26       70.00    
  35  -1000.0       79.01       79.00       78.97       78.93       78.88       78.81       78.73       78.64       78.54    
        78.42       78.29       78.15       77.99       77.82       77.64       77.46       77.27       77.07       76.87    
        76.67       76.46       76.25       76.03       75.82       75.60       75.38       75.16       74.94       74.72    
        74.50       74.28       74.06       73.84       73.61       73.39       73.16       72.93       72.70       72.47    
        72.23       72.00       71.75       71.51       71.26       71.02       70.76       70.51       70.26       70.00    
  36  -1000.0       78.93       78.92       78.89       78.85       78.80       78.73       78.65       78.56       78.46    
        78.34       78.21       78.07       77.92       77.76       77.58       77.40       77.21       77.02       76.82    
        76.62       76.42       76.21       76.00       75.78       75.57       75.35       75.14       74.92       74.70    
        74.48       74.26       74.04       73.82       73.60       73.37       73.15       72.92       72.69       72.45    
        72.22       71.98       71.74       71.50       71.25       71.01       70.76       70.51       70.25       70.00    
  37  -1000.0       78.86       78.84       78.82       78.78       78.72       78.66       78.58       78.49       78.39    
        78.27       78.15       78.01       77.86       77.69       77.52       77.34       77.16       76.97       76.77    
        76.58       76.38       76.17       75.96       75.76       75.54       75.33       75.12       74.90       74.68    
        74.47       74.25       74.03       73.80       73.58       73.36       73.13       72.90       72.67       72.44    
        72.20       71.97       71.73       71.49       71.24       71.00       70.75       70.50       70.25       70.00    
  38  -1000.0       78.79       78.78       78.75       78.71       78.66       78.59       78.51       78.42       78.32    
        78.21       78.08       77.95       77.80       77.64       77.47       77.29       77.11       76.92       76.73    
        76.54       76.34       76.14       75.93       75.73       75.52       75.31       75.09       74.88       74.67    
        74.45       74.23       74.01       73.79       73.57       73.34       73.12       72.89       72.66       72.43    
        72.19       71.96       71.72       71.48       71.24       70.99       70.75       70.50       70.25       70.00    
  39  -1000.0       78.73       78.72       78.69       78.65       78.59       78.53       78.45       78.36       78.26    
        78.15       78.03       77.89       77.74       77.59       77.42       77.24       77.06       76.88       76.69    
        76.50       76.31       76.11       75.91       75.70       75.49       75.29       75.07       74.86       74.65    
        74.43       74.21       74.00       73.78       73.55       73.33       73.10       72.88       72.65       72.42    
        72.18       71.95       71.71       71.47       71.23       70.99       70.74       70.50       70.25       70.00    
  40  -1000.0       78.68       78.67       78.64       78.59       78.54       78.47       78.39       78.31       78.21    
        78.09       77.97       77.84       77.69       77.54       77.37       77.20       77.02       76.84       76.66    
        76.47       76.27       76.08       75.88       75.68       75.47       75.26       75.06       74.84       74.63    
        74.42       74.20       73.98       73.76       73.54       73.32       73.09       72.86       72.64       72.40    
        72.17       71.94       71.70       71.46       71.22       70.98       70.74       70.49       70.25       70.00    
  41  -1000.0       78.65       78.62       78.59       78.54       78.49       78.42       78.34       78.25       78.15    
        78.05       77.92       77.79       77.65       77.50       77.33       77.16       76.99       76.81       76.62    
        76.44       76.25       76.05       75.85       75.65       75.45       75.25       75.04       74.83       74.62    
        74.40       74.19       73.97       73.75       73.53       73.31       73.08       72.85       72.63       72.40    
        72.16       71.93       71.69       71.46       71.22       70.98       70.73       70.49       70.25       70.00    
  42  -1000.0     -1000.0       78.58       78.54       78.50       78.44       78.37       78.29       78.21       78.11    
        78.00       77.88       77.75       77.61       77.46       77.29       77.13       76.95       76.78       76.59    
        76.41       76.22       76.03       75.83       75.63       75.43       75.23       75.02       74.81       74.60    
        74.39       74.17       73.96       73.74       73.52       73.30       73.07       72.85       72.62       72.39    
        72.16       71.92       71.69       71.45       71.21       70.97       70.73       70.49       70.24       70.00    
  43  -1000.0     -1000.0     -1000.0       78.50       78.45       78.39       78.33       78.25       78.16       78.07    
        77.96       77.84       77.71       77.57       77.42       77.26       77.09       76.92       76.75       76.57    
        76.39       76.20       76.01       75.81       75.62       75.42       75.21       75.01       74.80       74.59    
        74.38       74.16       73.95       73.73       73.51       73.29       73.06       72.84       72.61       72.38    
        72.15       71.92       71.68       71.45       71.21       70.97       70.73       70.49       70.24       70.00    
  44  -1000.0     -1000.0     -1000.0     -1000.0       78.41       78.35       78.28       78.21       78.12       78.03    
        77.92       77.81       77.68       77.54       77.39       77.23       77.07       76.90       76.72       76.55    
        76.36       76.18       75.99       75.80       75.60       75.40       75.20       75.00       74.79       74.58    
        74.37       74.15       73.94       73.72       73.50       73.28       73.06       72.83       72.60       72.37    
        72.14       71.91       71.68       71.44       71.20       70.97       70.73       70.49       70.24       70.00    
  45  -1000.0     -1000.0     -1000.0     -1000.0     -1000.0       78.31       78.24       78.17       78.08       77.99    
        77.89       77.77       77.65       77.51       77.37       77.21       77.05       76.88       76.70       76.53    
        76.35       76.16       75.97       75.78       75.59       75.39       75.19       74.99       74.78       74.57    
        74.36       74.15       73.93       73.71       73.49       73.27       73.05       72.83       72.60       72.37    
        72.14       71.91       71.67       71.44       71.20       70.96       70.72       70.48       70.24       70.00    
  46  -1000.0     -1000.0     -1000.0     -1000.0     -1000.0     -1000.0       78.20       78.13       78.05       77.96    
        77.86       77.75       77.63       77.49       77.35       77.19       77.03       76.86       76.69       76.51    
        76.33       76.15       75.96       75.77       75.58       75.38       75.18       74.98       74.77       74.56    
        74.35       74.14       73.93       73.71       73.49       73.27       73.05       72.82       72.59       72.37    
        72.14       71.90       71.67       71.44       71.20       70.96       70.72       70.48       70.24       70.00    
  47  -1000.0     -1000.0     -1000.0     -1000.0     -1000.0     -1000.0     -1000.0       78.10       78.02       77.93    
        77.83       77.73       77.61       77.47       77.33       77.17       77.01       76.85       76.68       76.50    
        76.32       76.14       75.95       75.76       75.57       75.37       75.17       74.97       74.77       74.56    
        74.35       74.14       73.92       73.70       73.49       73.26       73.04       72.82       72.59       72.36    
        72.13       71.90       71.67       71.43       71.20       70.96       70.72       70.48       70.24       70.00    
  48  -1000.0     -1000.0     -1000.0     -1000.0     -1000.0     -1000.0     -1000.0     -1000.0       77.99       77.91    
        77.81       77.71       77.59       77.46       77.32       77.16       77.00       76.84       76.67       76.49    
        76.32       76.13       75.95       75.76       75.56       75.37       75.17       74.97       74.76       74.55    
        74.34       74.13       73.92       73.70       73.48       73.26       73.04       72.82       72.59       72.36    
        72.13       71.90       71.67       71.43       71.20       70.96       70.72       70.48       70.24       70.00    
  49  -1000.0     -1000.0     -1000.0     -1000.0     -1000.0     -1000.0     -1000.0     -1000.0     -1000.0       77.88    
        77.80       77.70       77.59       77.46       77.31       77.16       77.00       76.83       76.66       76.49    
        76.31       76.13       75.94       75.75       75.56       75.37       75.17       74.96       74.76       74.55    
        74.34       74.13       73.92       73.70       73.48       73.26       73.04       72.81       72.59       72.36    
        72.13       71.90       71.67       71.43       71.20       70.96       70.72       70.48       70.24       70.00    
  50  -1000.0     -1000.0     -1000.0     -1000.0     -1000.0     -1000.0     -1000.0     -1000.0     -1000.0     -1000.0    
      -1000.0     -1000.0     -1000.0     -1000.0     -1000.0     -1000.0     -1000.0     -1000.0     -1000.0     -1000.0    
      -1000.0     -1000.0     -1000.0     -1000.0     -1000.0     -1000.0     -1000.0     -1000.0     -1000.0     -1000.0    
      -1000.0     -1000.0     -1000.0     -1000.0     -1000.0     -1000.0     -1000.0     -1000.0     -1000.0     -1000.0    
      -1000.0     -1000.0     -1000.0     -1000.0     -1000.0     -1000.0     -1000.0     -1000.0     -1000.0       70.00    

 HEAD WILL BE SAVED ON UNIT   51 AT END OF TIME STEP    1, STRESS PERIOD    1

 DRAWDOWN WILL BE SAVED ON UNIT   52 AT END OF TIME STEP    1, STRESS PERIOD    1
1
  VOLUMETRIC BUDGET FOR ENTIRE MODEL AT END OF TIME STEP    1, STRESS PERIOD   1
  ------------------------------------------------------------------------------

     CUMULATIVE VOLUMES      L**3       RATES FOR THIS TIME STEP      L**3/T
     ------------------                 ------------------------

           IN:                                      IN:
           ---                                      ---
             STORAGE =           0.0000               STORAGE =           0.0000
       CONSTANT HEAD =           0.0000         CONSTANT HEAD =           0.0000
               WELLS =         375.0000                 WELLS =         375.0000
       RIVER LEAKAGE =      111760.1797         RIVER LEAKAGE =      111760.1797
                  ET =           0.0000                    ET =           0.0000
            RECHARGE =       33199.9961              RECHARGE =       33199.9961

            TOTAL IN =      145335.1719              TOTAL IN =      145335.1719

          OUT:                                     OUT:
          ----                                     ----
             STORAGE =           0.0000               STORAGE =           0.0000
       CONSTANT HEAD =       91587.4531         CONSTANT HEAD =       91587.4531
               WELLS =        3000.0000                 WELLS =        3000.0000
       RIVER LEAKAGE =           0.0000         RIVER LEAKAGE =           0.0000
                  ET =       50747.6406                    ET =       50747.6406
            RECHARGE =           0.0000              RECHARGE =           0.0000

           TOTAL OUT =      145335.0938             TOTAL OUT =      145335.0938

            IN - OUT =       7.8125E-02              IN - OUT =       7.8125E-02

 PERCENT DISCREPANCY =           0.00     PERCENT DISCREPANCY =           0.00






         TIME SUMMARY AT END OF TIME STEP    1 IN STRESS PERIOD    1
                    SECONDS     MINUTES      HOURS       DAYS        YEARS
                    -----------------------------------------------------------
   TIME STEP LENGTH  86400.      1440.0      24.000      1.0000     2.73785E-03
 STRESS PERIOD TIME  86400.      1440.0      24.000      1.0000     2.73785E-03
         TOTAL TIME  86400.      1440.0      24.000      1.0000     2.73785E-03
1

 Run end date and time (yyyy/mm/dd hh:mm:ss): 2026/02/25 16:25:42
 Elapsed run time: 15.452 Seconds

