                                  MODFLOW-2005     
      U.S. GEOLOGICAL SURVEY MODULAR FINITE-DIFFERENCE GROUND-WATER FLOW MODEL
                            VERSION 1.12.00 2/3/2017

 LIST FILE: static_ensemble_1133133.list
                         UNIT    2

 OPENING static_ensemble_1133133.dis
 FILE TYPE:DIS   UNIT   11   STATUS:OLD    
 FORMAT:FORMATTED              ACCESS:SEQUENTIAL          

 OPENING static_ensemble_1133133.bas
 FILE TYPE:BAS6   UNIT   13   STATUS:OLD    
 FORMAT:FORMATTED              ACCESS:SEQUENTIAL          

 OPENING static_ensemble_1133133.lpf
 FILE TYPE:LPF   UNIT   15   STATUS:OLD    
 FORMAT:FORMATTED              ACCESS:SEQUENTIAL          

 OPENING static_ensemble_1133133.evt
 FILE TYPE:EVT   UNIT   22   STATUS:OLD    
 FORMAT:FORMATTED              ACCESS:SEQUENTIAL          

 OPENING static_ensemble_1133133.rch
 FILE TYPE:RCH   UNIT   19   STATUS:OLD    
 FORMAT:FORMATTED              ACCESS:SEQUENTIAL          

 OPENING static_ensemble_1133133.riv
 FILE TYPE:RIV   UNIT   18   STATUS:OLD    
 FORMAT:FORMATTED              ACCESS:SEQUENTIAL          

 OPENING static_ensemble_1133133.wel
 FILE TYPE:WEL   UNIT   20   STATUS:OLD    
 FORMAT:FORMATTED              ACCESS:SEQUENTIAL          

 OPENING static_ensemble_1133133.oc
 FILE TYPE:OC   UNIT   14   STATUS:OLD    
 FORMAT:FORMATTED              ACCESS:SEQUENTIAL          

 OPENING static_ensemble_1133133.pcg
 FILE TYPE:PCG   UNIT   27   STATUS:OLD    
 FORMAT:FORMATTED              ACCESS:SEQUENTIAL          

 OPENING static_ensemble_1133133.cbc
 FILE TYPE:DATA(BINARY)   UNIT   53   STATUS:REPLACE
 FORMAT:UNFORMATTED            ACCESS:STREAM              

 OPENING static_ensemble_1133133.hds
 FILE TYPE:DATA(BINARY)   UNIT   51   STATUS:REPLACE
 FORMAT:UNFORMATTED            ACCESS:STREAM              

 OPENING static_ensemble_1133133.ddn
 FILE TYPE:DATA(BINARY)   UNIT   52   STATUS:REPLACE
 FORMAT:UNFORMATTED            ACCESS:STREAM              

 BAS -- BASIC PACKAGE, VERSION 7, 5/2/2005 INPUT READ FROM UNIT   13
 
 MODFLOW was compiled using mixed precision
 Precision of REAL variables:           6
 Precision of DOUBLE PRECISION variables:          15

 DISCRETIZATION INPUT DATA READ FROM UNIT   11
 # DIS package for MODFLOW-2005 generated by Flopy 3.9.5
    3 LAYERS        50 ROWS        50 COLUMNS
    1 STRESS PERIOD(S) IN SIMULATION
 MODEL TIME UNIT IS DAYS
 MODEL LENGTH UNIT IS METERS
  Confining bed flag for each layer:
   0   0   0

                     DELR =   1000.00    

                     DELC =   1000.00    



           TOP ELEVATION OF LAYER 1
 READING ON UNIT   11 WITH FORMAT: (50E15.6)           



             MODEL LAYER BOTTOM EL. FOR LAYER   1
 READING ON UNIT   11 WITH FORMAT: (50E15.6)           



             MODEL LAYER BOTTOM EL. FOR LAYER   2
 READING ON UNIT   11 WITH FORMAT: (50E15.6)           



             MODEL LAYER BOTTOM EL. FOR LAYER   3
 READING ON UNIT   11 WITH FORMAT: (50E15.6)           


 STRESS PERIOD     LENGTH       TIME STEPS     MULTIPLIER FOR DELT    SS FLAG
 ----------------------------------------------------------------------------
        1         1.000000          1                    1.000         SS

 STEADY-STATE SIMULATION



 
 # BAS6 package for MODFLOW-2005 generated by Flopy 3.9.5                        
 THE FREE FORMAT OPTION HAS BEEN SELECTED



                     BOUNDARY ARRAY FOR LAYER   1
 READING ON UNIT   13 WITH FORMAT: (50I10)             



                     BOUNDARY ARRAY FOR LAYER   2
 READING ON UNIT   13 WITH FORMAT: (50I10)             



                     BOUNDARY ARRAY FOR LAYER   3
 READING ON UNIT   13 WITH FORMAT: (50I10)             

 AQUIFER HEAD WILL BE SET TO  -999.99     AT ALL NO-FLOW NODES (IBOUND=0).



                       INITIAL HEAD FOR LAYER   1
 READING ON UNIT   13 WITH FORMAT: (50E15.6)           



                       INITIAL HEAD FOR LAYER   2
 READING ON UNIT   13 WITH FORMAT: (50E15.6)           



                       INITIAL HEAD FOR LAYER   3
 READING ON UNIT   13 WITH FORMAT: (50E15.6)           
 # OC package for MODFLOW-2005 generated by Flopy 3.9.5

 OUTPUT CONTROL IS SPECIFIED ONLY AT TIME STEPS FOR WHICH OUTPUT IS DESIRED
 COMPACT CELL-BY-CELL BUDGET FILES WILL BE WRITTEN
 AUXILIARY DATA WILL BE SAVED IN CELL-BY-CELL BUDGET FILES
 HEAD PRINT FORMAT CODE IS   0    DRAWDOWN PRINT FORMAT CODE IS   0
 HEADS WILL BE SAVED ON UNIT   51    DRAWDOWNS WILL BE SAVED ON UNIT   52

 LPF -- LAYER-PROPERTY FLOW PACKAGE, VERSION 7, 5/2/2005
         INPUT READ FROM UNIT   15
 # LPF package for MODFLOW-2005 generated by Flopy 3.9.5
 CELL-BY-CELL FLOWS WILL BE SAVED ON UNIT   53
 HEAD AT CELLS THAT CONVERT TO DRY= -1.00000E+30
 No named parameters
 STORAGECOEFFICIENT OPTION:
 Read storage coefficient rather than specific storage

   LAYER FLAGS:
 LAYER       LAYTYP        LAYAVG         CHANI        LAYVKA        LAYWET
 ---------------------------------------------------------------------------
    1             1             0     1.000E+00             0             0
    2             1             0     1.000E+00             0             0
    3             1             0     1.000E+00             0             0

   INTERPRETATION OF LAYER FLAGS:
                        INTERBLOCK     HORIZONTAL    DATA IN
         LAYER TYPE   TRANSMISSIVITY   ANISOTROPY   ARRAY VKA   WETTABILITY
 LAYER      (LAYTYP)      (LAYAVG)       (CHANI)      (LAYVKA)      (LAYWET)
 ---------------------------------------------------------------------------
    1   CONVERTIBLE      HARMONIC     1.000E+00    VERTICAL K  NON-WETTABLE
    2   CONVERTIBLE      HARMONIC     1.000E+00    VERTICAL K  NON-WETTABLE
    3   CONVERTIBLE      HARMONIC     1.000E+00    VERTICAL K  NON-WETTABLE

 WETTING CAPABILITY IS NOT ACTIVE IN ANY LAYER



              HYD. COND. ALONG ROWS FOR LAYER   1
 READING ON UNIT   15 WITH FORMAT: (50E15.6)           



                VERTICAL HYD. COND. FOR LAYER   1
 READING ON UNIT   15 WITH FORMAT: (50E15.6)           



              HYD. COND. ALONG ROWS FOR LAYER   2
 READING ON UNIT   15 WITH FORMAT: (50E15.6)           



                VERTICAL HYD. COND. FOR LAYER   2
 READING ON UNIT   15 WITH FORMAT: (50E15.6)           



              HYD. COND. ALONG ROWS FOR LAYER   3
 READING ON UNIT   15 WITH FORMAT: (50E15.6)           



                VERTICAL HYD. COND. FOR LAYER   3
 READING ON UNIT   15 WITH FORMAT: (50E15.6)           

 WEL -- WELL PACKAGE, VERSION 7, 5/2/2005 INPUT READ FROM UNIT   20
 # WEL package for MODFLOW-2005 generated by Flopy 3.9.5
 No named parameters
 MAXIMUM OF      3 ACTIVE WELLS AT ONE TIME


     0 Well parameters

 RIV -- RIVER PACKAGE, VERSION 7, 5/2/2005 INPUT READ FROM UNIT   18
 # RIV package for MODFLOW-2005 generated by Flopy 3.9.5
 No named parameters
 MAXIMUM OF     49 ACTIVE RIVER REACHES AT ONE TIME
 CELL-BY-CELL FLOWS WILL BE SAVED ON UNIT   53


     0 River parameters

 EVT -- EVAPOTRANSPIRATION PACKAGE, VERSION 7, 5/2/2005
         INPUT READ FROM UNIT   22
 # EVT package for MODFLOW-2005 generated by Flopy 3.9.5
 No named parameters
 OPTION 3 -- EVAPOTRANSPIRATION FROM HIGHEST ACTIVE NODE IN EACH VERTICAL COLUMN
 CELL-BY-CELL FLOWS WILL BE SAVED ON UNIT   53


     0 Evapotranspiration parameters

 RCH -- RECHARGE PACKAGE, VERSION 7, 5/2/2005 INPUT READ FROM UNIT   19
 # RCH package for MODFLOW-2005 generated by Flopy 3.9.5
 No named parameters
 OPTION 3 -- RECHARGE TO HIGHEST ACTIVE NODE IN EACH VERTICAL COLUMN
 CELL-BY-CELL FLOWS WILL BE SAVED ON UNIT   53


     0 Recharge parameters

 PCG -- CONJUGATE-GRADIENT SOLUTION PACKAGE, VERSION 7, 5/2/2005
 # PCG package for MODFLOW-2005 generated by Flopy 3.9.5
 MAXIMUM OF   5000 CALLS OF SOLUTION ROUTINE
 MAXIMUM OF    500 INTERNAL ITERATIONS PER CALL TO SOLUTION ROUTINE
 MATRIX PRECONDITIONING TYPE :    1



                                    SOLUTION BY THE CONJUGATE-GRADIENT METHOD
                                   -------------------------------------------
                    MAXIMUM NUMBER OF CALLS TO PCG ROUTINE =     5000
                        MAXIMUM ITERATIONS PER CALL TO PCG =      500
                               MATRIX PRECONDITIONING TYPE =        1
        RELAXATION FACTOR (ONLY USED WITH PRECOND. TYPE 1) =    0.97000E+00
 PARAMETER OF POLYNOMIAL PRECOND. = 2 (2) OR IS CALCULATED :        0
                         HEAD CHANGE CRITERION FOR CLOSURE =    0.10000E-04
                     RESIDUAL CHANGE CRITERION FOR CLOSURE =    0.10000E-04
            PCG HEAD AND RESIDUAL CHANGE PRINTOUT INTERVAL =      999
     PRINTING FROM SOLVER IS LIMITED(1) OR SUPPRESSED (>1) =        3
                            STEADY-STATE DAMPING PARAMETER =    0.10000E-01
                               TRANSIENT DAMPING PARAMETER =    0.10000E-01
1
                            STRESS PERIOD NO.    1, LENGTH =   1.000000    
                            -----------------------------------------------

                              NUMBER OF TIME STEPS =     1

                               MULTIPLIER FOR DELT =     1.000

                            INITIAL TIME STEP SIZE =   1.000000    

 WELL NO.  LAYER   ROW   COL   STRESS RATE         
 --------------------------------------------------
      1      3     22     39      -1500.    
      2      1     13     15      -4500.    
      3      1     25     26       375.0    

      3 WELLS

 REACH NO.  LAYER   ROW   COL     STAGE      CONDUCTANCE     BOTTOM EL.         
 -------------------------------------------------------------------------------
      1      1     25      2       100.5           5000.           98.00    
      2      1     25      3       99.50           5000.           97.00    
      3      1     25      4       98.50           5000.           96.00    
      4      1     25      5       97.50           5000.           95.00    
      5      1     25      6       96.50           5000.           94.00    
      6      1     25      7       95.50           5000.           93.00    
      7      1     25      8       94.50           5000.           92.00    
      8      1     25      9       93.50           5000.           91.00    
      9      1     25     10       92.50           5000.           90.00    
     10      1     25     11       91.50           5000.           89.00    
     11      1     25     12       90.50           5000.           88.00    
     12      1     25     13       89.50           5000.           87.00    
     13      1     25     14       88.50           5000.           86.00    
     14      1     25     15       87.50           5000.           85.00    
     15      1     25     16       86.50           5000.           84.00    
     16      1     25     17       85.50           5000.           83.00    
     17      1     25     18       84.50           5000.           82.00    
     18      1     25     19       83.50           5000.           81.00    
     19      1     25     20       82.50           5000.           80.00    
     20      1     25     21       81.50           5000.           79.00    
     21      1     25     22       80.50           5000.           78.00    
     22      1     25     23       79.50           5000.           77.00    
     23      1     25     24       78.50           5000.           76.00    
     24      1     25     25       77.50           5000.           75.00    
     25      1     25     26       77.40           5000.           74.90    
     26      1     25     27       77.30           5000.           74.80    
     27      1     25     28       77.20           5000.           74.70    
     28      1     25     29       77.10           5000.           74.60    
     29      1     25     30       77.00           5000.           74.50    
     30      1     25     31       76.90           5000.           74.40    
     31      1     25     32       76.80           5000.           74.30    
     32      1     25     33       76.70           5000.           74.20    
     33      1     25     34       76.60           5000.           74.10    
     34      1     25     35       76.50           5000.           74.00    
     35      1     25     36       76.40           5000.           73.90    
     36      1     25     37       76.30           5000.           73.80    
     37      1     25     38       76.20           5000.           73.70    
     38      1     25     39       76.10           5000.           73.60    
     39      1     25     40       76.00           5000.           73.50    
     40      1     25     41       75.90           5000.           73.40    
     41      1     25     42       75.80           5000.           73.30    
     42      1     25     43       75.70           5000.           73.20    
     43      1     25     44       75.60           5000.           73.10    
     44      1     25     45       75.50           5000.           73.00    
     45      1     25     46       75.40           5000.           72.90    
     46      1     25     47       75.30           5000.           72.80    
     47      1     25     48       75.20           5000.           72.70    
     48      1     25     49       75.10           5000.           72.60    
     49      1     25     50       75.00           5000.           72.50    

     49 RIVER REACHES



                         ET SURFACE
 READING ON UNIT   22 WITH FORMAT: (50E15.6)           



            EVAPOTRANSPIRATION RATE
 READING ON UNIT   22 WITH FORMAT: (50E15.6)           

         EXTINCTION DEPTH =   10.0000    



                           RECHARGE
 READING ON UNIT   19 WITH FORMAT: (50E15.6)           
 
 SOLVING FOR HEAD 

 OUTPUT CONTROL FOR STRESS PERIOD    1   TIME STEP    1
    SAVE HEAD FOR ALL LAYERS
    SAVE DRAWDOWN FOR ALL LAYERS
    SAVE BUDGET
    PRINT HEAD FOR ALL LAYERS
    PRINT BUDGET
 UBDSV2 SAVING "   CONSTANT HEAD" ON UNIT  53 AT TIME STEP  1, STRESS PERIOD   1
 UBDSV1 SAVING "FLOW RIGHT FACE " ON UNIT  53 AT TIME STEP  1, STRESS PERIOD   1
 UBDSV1 SAVING "FLOW FRONT FACE " ON UNIT  53 AT TIME STEP  1, STRESS PERIOD   1
 UBDSV1 SAVING "FLOW LOWER FACE " ON UNIT  53 AT TIME STEP  1, STRESS PERIOD   1
 UBDSV4 SAVING "   RIVER LEAKAGE" ON UNIT  53 AT TIME STEP  1, STRESS PERIOD   1
 UBDSV3 SAVING "              ET" ON UNIT  53 AT TIME STEP  1, STRESS PERIOD   1
 UBDSV3 SAVING "        RECHARGE" ON UNIT  53 AT TIME STEP  1, STRESS PERIOD   1
1
              HEAD IN LAYER   1 AT END OF TIME STEP   1 IN STRESS PERIOD    1
  ---------------------------------------------------------------------------

            1           2           3           4           5           6           7           8           9          10
           11          12          13          14          15          16          17          18          19          20
           21          22          23          24          25          26          27          28          29          30
           31          32          33          34          35          36          37          38          39          40
           41          42          43          44          45          46          47          48          49          50
 ........................................................................................................................
   1  -1000.0     -1000.0     -1000.0     -1000.0     -1000.0     -1000.0     -1000.0     -1000.0     -1000.0     -1000.0    
      -1000.0     -1000.0     -1000.0     -1000.0     -1000.0     -1000.0     -1000.0     -1000.0     -1000.0     -1000.0    
      -1000.0     -1000.0     -1000.0     -1000.0     -1000.0     -1000.0     -1000.0     -1000.0     -1000.0     -1000.0    
      -1000.0     -1000.0     -1000.0     -1000.0     -1000.0     -1000.0     -1000.0     -1000.0     -1000.0     -1000.0    
      -1000.0     -1000.0     -1000.0     -1000.0     -1000.0     -1000.0     -1000.0     -1000.0     -1000.0       70.00    
   2  -1000.0     -1000.0     -1000.0     -1000.0     -1000.0       99.64       99.36       98.91       98.35       97.70    
        97.16       96.51       95.78       94.96       94.07       93.11       92.17       91.27       90.40       89.56    
        88.78       88.03       87.29       86.57       85.86       85.17       84.49       83.82       83.16       82.51    
        81.87       81.23       80.60       79.98       79.37       78.76       78.15       77.54       76.94       76.33    
        75.73       75.12       74.51       73.89       73.27       72.64       72.00       71.35       70.68       70.00    
   3  -1000.0     -1000.0     -1000.0     -1000.0      100.00       99.73       99.36       98.87       98.27       97.74    
        97.16       96.49       95.75       94.93       94.03       93.07       92.13       91.23       90.36       89.52    
        88.75       88.00       87.26       86.54       85.84       85.15       84.47       83.80       83.14       82.49    
        81.85       81.22       80.59       79.97       79.36       78.75       78.14       77.53       76.93       76.33    
        75.72       75.11       74.50       73.89       73.26       72.63       71.99       71.34       70.68       70.00    
   4  -1000.0     -1000.0     -1000.0       100.3       100.1       99.74       99.32       98.78       98.30       97.74    
        97.13       96.44       95.68       94.85       93.95       92.98       92.05       91.15       90.29       89.45    
        88.69       87.94       87.21       86.49       85.79       85.10       84.42       83.76       83.10       82.46    
        81.82       81.19       80.56       79.95       79.33       78.73       78.12       77.52       76.91       76.31    
        75.71       75.10       74.49       73.88       73.26       72.63       71.99       71.34       70.68       70.00    
   5  -1000.0     -1000.0       100.6       100.4       100.1       99.70       99.22       98.78       98.28       97.70    
        97.06       96.35       95.57       94.73       93.82       92.85       91.92       91.03       90.17       89.35    
        88.59       87.85       87.12       86.42       85.72       85.04       84.36       83.70       83.05       82.41    
        81.77       81.14       80.52       79.91       79.30       78.69       78.09       77.49       76.89       76.29    
        75.69       75.09       74.48       73.87       73.25       72.62       71.99       71.34       70.68       70.00    
   6  -1000.0       100.7       100.6       100.3       100.0       99.60       99.21       98.75       98.23       97.63    
        96.96       96.22       95.42       94.56       93.64       92.67       91.74       90.86       90.02       89.21    
        88.46       87.73       87.02       86.32       85.63       84.95       84.28       83.63       82.98       82.34    
        81.71       81.09       80.47       79.86       79.25       78.65       78.05       77.46       76.86       76.27    
        75.67       75.07       74.46       73.86       73.24       72.61       71.98       71.33       70.68       70.00    
   7  -1000.0       100.6       100.5       100.3       99.91       99.57       99.17       98.69       98.14       97.51    
        96.81       96.05       95.22       94.33       93.40       92.43       91.51       90.65       89.83       89.04    
        88.30       87.59       86.89       86.19       85.51       84.84       84.18       83.53       82.89       82.26    
        81.63       81.01       80.40       79.80       79.20       78.60       78.01       77.42       76.82       76.23    
        75.64       75.05       74.45       73.84       73.23       72.61       71.97       71.33       70.67       70.00    
   8  -1000.0       100.5       100.4       100.1       99.86       99.51       99.09       98.60       98.02       97.36    
        96.63       95.82       94.95       94.04       93.09       92.12       91.22       90.39       89.59       88.83    
        88.12       87.42       86.73       86.05       85.38       84.72       84.06       83.42       82.78       82.16    
        81.54       80.93       80.32       79.72       79.13       78.54       77.95       77.37       76.78       76.20    
        75.61       75.02       74.42       73.82       73.21       72.59       71.97       71.33       70.67       70.00    
   9  -1000.0       100.4       100.2       100.0       99.78       99.43       99.00       98.48       97.87       97.18    
        96.40       95.55       94.62       93.65       92.68       91.72       90.86       90.07       89.32       88.59    
        87.91       87.23       86.56       85.89       85.23       84.57       83.93       83.29       82.66       82.04    
        81.43       80.82       80.23       79.63       79.05       78.47       77.89       77.31       76.73       76.15    
        75.57       74.99       74.40       73.80       73.20       72.58       71.96       71.32       70.67       70.00    
  10  -1000.0       100.2       100.1       99.96       99.69       99.33       98.88       98.34       97.71       96.98    
        96.15       95.22       94.22       93.16       92.13       91.21       90.43       89.71       89.02       88.34    
        87.68       87.02       86.37       85.71       85.06       84.41       83.77       83.14       82.52       81.91    
        81.30       80.71       80.12       79.54       78.96       78.38       77.81       77.25       76.68       76.11    
        75.53       74.96       74.37       73.78       73.18       72.57       71.95       71.32       70.67       70.00    
  11  -1000.0       100.1       100.0       99.86       99.58       99.21       98.75       98.19       97.53       96.76    
        95.88       94.87       93.74       92.52       91.35       90.55       89.92       89.32       88.71       88.07    
        87.45       86.81       86.16       85.52       84.87       84.23       83.60       82.98       82.36       81.76    
        81.16       80.58       80.00       79.42       78.86       78.29       77.73       77.17       76.62       76.06    
        75.49       74.92       74.35       73.76       73.17       72.56       71.94       71.31       70.66       70.00    
  12  -1000.0       100.0       99.93       99.75       99.46       99.09       98.61       98.03       97.35       96.55    
        95.62       94.52       93.23       91.70       90.06       89.70       89.38       88.93       88.40       87.82    
        87.21       86.59       85.95       85.31       84.67       84.03       83.41       82.79       82.19       81.59    
        81.01       80.43       79.86       79.30       78.74       78.19       77.65       77.10       76.55       76.00    
        75.45       74.89       74.32       73.75       73.16       72.56       71.94       71.31       70.66       70.00    
  13  -1000.0       99.92       99.82       99.63       99.34       98.95       98.47       97.88       97.18       96.36    
        95.40       94.25       92.82       90.83       87.32       88.82       88.94       88.63       88.15       87.59    
        86.99       86.37       85.73       85.09       84.45       83.82       83.20       82.59       81.99       81.41    
        80.83       80.27       79.71       79.16       78.62       78.08       77.55       77.02       76.48       75.95    
        75.41       74.86       74.30       73.73       73.15       72.55       71.94       71.31       70.67       70.00    
  14  -1000.0       99.80       99.70       99.50       99.21       98.82       98.33       97.73       97.03       96.21    
        95.25       94.14       92.83       91.28       89.63       89.27       88.94       88.50       87.98       87.40    
        86.78       86.15       85.50       84.86       84.22       83.59       82.97       82.37       81.78       81.20    
        80.64       80.09       79.55       79.01       78.49       77.97       77.45       76.93       76.41       75.89    
        75.37       74.83       74.28       73.73       73.15       72.56       71.95       71.32       70.67       70.00    
  15  -1000.0       99.68       99.58       99.38       99.08       98.68       98.18       97.58       96.88       96.07    
        95.15       94.10       92.94       91.69       90.50       89.69       89.06       88.46       87.85       87.23    
        86.58       85.93       85.27       84.61       83.97       83.33       82.72       82.12       81.54       80.98    
        80.43       79.89       79.37       78.85       78.34       77.84       77.34       76.84       76.34       75.84    
        75.33       74.81       74.28       73.73       73.16       72.57       71.96       71.33       70.68       70.00    
  16  -1000.0       99.56       99.46       99.25       98.94       98.53       98.03       97.43       96.73       95.94    
        95.05       94.07       93.01       91.91       90.85       89.92       89.13       88.42       87.74       87.07    
        86.38       85.69       85.01       84.34       83.69       83.05       82.44       81.85       81.28       80.73    
        80.20       79.68       79.17       78.68       78.19       77.71       77.23       76.75       76.27       75.79    
        75.30       74.80       74.28       73.74       73.19       72.60       71.99       71.35       70.69       70.00    
  17  -1000.0       99.44       99.34       99.12       98.80       98.38       97.87       97.26       96.57       95.79    
        94.92       93.99       93.00       91.98       90.97       89.98       89.12       88.34       87.61       86.90    
        86.16       85.44       84.73       84.04       83.38       82.74       82.13       81.55       80.99       80.46    
        79.95       79.45       78.97       78.49       78.03       77.57       77.12       76.66       76.21       75.75    
        75.28       74.79       74.30       73.78       73.23       72.65       72.04       71.39       70.71       70.00    
  18  -1000.0       99.34       99.22       98.99       98.66       98.23       97.70       97.08       96.38       95.61    
        94.76       93.85       92.90       91.92       90.92       89.93       89.03       88.21       87.44       86.71    
        85.92       85.15       84.41       83.70       83.02       82.38       81.78       81.21       80.67       80.16    
        79.67       79.20       78.74       78.29       77.86       77.43       77.00       76.57       76.14       75.71    
        75.27       74.81       74.34       73.83       73.30       72.73       72.11       71.45       70.74       70.00    
  19  -1000.0       99.24       99.12       98.87       98.52       98.06       97.51       96.87       96.16       95.38    
        94.54       93.65       92.71       91.75       90.76       89.76       88.85       88.01       87.23       86.48    
        85.64       84.82       84.04       83.30       82.62       81.97       81.38       80.83       80.31       79.83    
        79.36       78.92       78.50       78.08       77.68       77.28       76.88       76.49       76.09       75.69    
        75.28       74.85       74.40       73.92       73.41       72.84       72.22       71.54       70.79       70.00    
  20  -1000.0       99.17       99.03       98.76       98.37       97.88       97.29       96.63       95.90       95.11    
        94.26       93.37       92.44       91.48       90.50       89.49       88.58       87.75       86.99       86.24    
        85.31       84.42       83.60       82.84       82.14       81.50       80.92       80.40       79.91       79.46    
        79.03       78.63       78.24       77.86       77.49       77.13       76.77       76.41       76.05       75.68    
        75.31       74.91       74.50       74.05       73.56       73.01       72.39       71.68       70.88       70.00    
  21  -1000.0       99.14       98.98       98.66       98.22       97.68       97.05       96.35       95.59       94.77    
        93.91       93.01       92.08       91.12       90.13       89.12       88.21       87.40       86.75       85.99    
        84.90       83.94       83.07       82.28       81.58       80.95       80.40       79.90       79.46       79.05    
        78.67       78.30       77.96       77.62       77.29       76.97       76.65       76.34       76.02       75.69    
        75.36       75.01       74.64       74.23       73.77       73.25       72.63       71.89       71.01       70.00    
  22  -1000.0       99.17       98.97       98.59       98.08       97.47       96.78       96.02       95.22       94.37    
        93.48       92.57       91.62       90.65       89.66       88.64       87.72       86.91       86.25       85.50    
        84.34       83.32       82.41       81.60       80.90       80.29       79.78       79.34       78.95       78.60    
        78.27       77.96       77.66       77.37       77.09       76.82       76.54       76.27       76.00       75.72    
        75.44       75.14       74.82       74.46       74.06       73.58       72.99       72.23       71.24       70.00    
  23  -1000.0       99.31       99.03       98.55       97.93       97.23       96.46       95.64       94.78       93.89    
        92.98       92.04       91.08       90.10       89.10       88.07       87.12       86.25       85.47       84.74    
        83.59       82.55       81.62       80.78       80.07       79.52       79.08       78.72       78.40       78.11    
        77.85       77.60       77.36       77.12       76.89       76.67       76.45       76.23       76.01       75.78    
        75.55       75.31       75.05       74.77       74.44       74.04       73.52       72.78       71.67       70.00    
  24  -1000.0       99.64       99.20       98.54       97.78       96.95       96.08       95.19       94.27       93.33    
        92.38       91.41       90.43       89.44       88.43       87.40       86.42       85.50       84.64       83.90    
        82.69       81.64       80.67       79.79       79.04       78.61       78.28       78.02       77.80       77.59    
        77.40       77.22       77.04       76.87       76.70       76.54       76.37       76.20       76.04       75.87    
        75.70       75.53       75.34       75.14       74.91       74.64       74.27       73.70       72.61       70.00    
  25  -1000.0       100.3       99.47       98.54       97.58       96.61       95.63       94.64       93.65       92.66    
        91.67       90.67       89.68       88.68       87.67       86.66       85.66       84.66       83.68       82.77    
        81.59       80.58       79.58       78.59       77.63       77.55       77.37       77.26       77.15       77.04    
        76.93       76.83       76.72       76.62       76.52       76.41       76.31       76.20       76.10       75.99    
        75.89       75.79       75.68       75.57       75.47       75.36       75.24       75.11       74.85       70.00    
  26  -1000.0       99.93       99.48       98.83       98.08       97.26       96.40       95.51       94.60       93.67    
        92.73       91.77       90.79       89.79       88.78       87.72       86.72       85.76       84.87       84.11    
        82.91       81.86       80.90       80.01       79.25       78.82       78.48       78.21       77.98       77.77    
        77.57       77.38       77.19       77.01       76.83       76.66       76.48       76.31       76.13       75.96    
        75.78       75.59       75.39       75.18       74.94       74.66       74.28       73.70       72.61       70.00    
  27  -1000.0       99.88       99.60       99.13       98.53       97.84       97.09       96.29       95.45       94.58    
        93.68       92.76       91.80       90.82       89.79       88.73       87.73       86.78       85.92       85.15    
        84.04       83.02       82.10       81.26       80.53       79.97       79.51       79.12       78.79       78.48    
        78.19       77.92       77.66       77.41       77.16       76.92       76.68       76.44       76.19       75.95    
        75.70       75.44       75.16       74.85       74.51       74.09       73.55       72.81       71.68       70.00    
  28  -1000.0       100.0       99.81       99.45       98.96       98.38       97.72       96.99       96.22       95.40    
        94.55       93.65       92.72       91.74       90.73       89.66       88.66       87.72       86.84       86.05    
        85.01       84.05       83.15       82.33       81.60       80.97       80.43       79.95       79.53       79.14    
        78.78       78.44       78.11       77.80       77.49       77.18       76.88       76.58       76.28       75.97    
        75.66       75.33       74.98       74.60       74.17       73.67       73.05       72.27       71.26       70.00    
  29  -1000.0       100.2       100.1       99.80       99.39       98.88       98.29       97.63       96.92       96.15    
        95.33       94.46       93.55       92.59       91.58       90.51       89.51       88.56       87.68       86.86    
        85.88       84.95       84.08       83.27       82.52       81.85       81.25       80.71       80.22       79.77    
        79.34       78.94       78.55       78.17       77.81       77.45       77.09       76.74       76.39       76.03    
        75.66       75.27       74.86       74.42       73.93       73.37       72.72       71.95       71.04       70.00    
  30  -1000.0       100.5       100.4       100.2       99.80       99.35       98.82       98.21       97.54       96.81    
        96.03       95.19       94.29       93.35       92.35       91.29       90.28       89.33       88.43       87.59    
        86.65       85.75       84.89       84.08       83.32       82.62       81.97       81.39       80.84       80.34    
        79.86       79.40       78.96       78.53       78.12       77.71       77.31       76.91       76.50       76.10    
        75.68       75.24       74.78       74.29       73.76       73.17       72.51       71.76       70.92       70.00    
  31  -1000.0       100.9       100.7       100.5       100.2       99.80       99.31       98.75       98.11       97.42    
        96.66       95.84       94.97       94.04       93.05       91.99       90.99       90.03       89.12       88.25    
        87.34       86.46       85.61       84.80       84.03       83.30       82.62       82.00       81.41       80.86    
        80.33       79.83       79.35       78.88       78.42       77.97       77.52       77.08       76.63       76.18    
        75.72       75.24       74.74       74.22       73.65       73.04       72.37       71.64       70.84       70.00    
  32  -1000.0       101.2       101.1       100.9       100.6       100.2       99.76       99.23       98.63       97.96    
        97.23       96.44       95.58       94.66       93.68       92.63       91.62       90.66       89.74       88.86    
        87.96       87.09       86.25       85.43       84.65       83.90       83.20       82.55       81.93       81.34    
        80.77       80.23       79.71       79.20       78.70       78.21       77.73       77.24       76.76       76.27    
        75.77       75.26       74.73       74.17       73.58       72.96       72.29       71.57       70.80       70.00    
  33  -1000.0       101.5       101.4       101.2       101.0       100.6       100.2       99.68       99.10       98.46    
        97.75       96.97       96.13       95.22       94.24       93.20       92.19       91.23       90.30       89.41    
        88.52       87.66       86.82       86.00       85.21       84.45       83.73       83.04       82.40       81.78    
        81.18       80.60       80.05       79.50       78.97       78.45       77.93       77.41       76.90       76.37    
        75.84       75.30       74.74       74.16       73.55       72.91       72.24       71.53       70.78       70.00    
  34  -1000.0       101.8       101.7       101.6       101.3       101.0       100.6       100.1       99.54       98.91    
        98.22       97.46       96.63       95.73       94.76       93.72       92.71       91.74       90.81       89.91    
        89.03       88.17       87.33       86.51       85.71       84.93       84.20       83.50       82.82       82.18    
        81.56       80.95       80.36       79.79       79.23       78.67       78.13       77.58       77.03       76.48    
        75.92       75.36       74.77       74.17       73.55       72.90       72.22       71.51       70.77       70.00    
  35  -1000.0       102.1       102.1       101.9       101.7       101.3       100.9       100.5       99.93       99.32    
        98.64       97.89       97.07       96.18       95.22       94.19       93.18       92.21       91.27       90.36    
        89.48       88.62       87.78       86.96       86.16       85.37       84.63       83.91       83.22       82.55    
        81.90       81.27       80.66       80.06       79.47       78.89       78.31       77.74       77.17       76.59    
        76.01       75.42       74.82       74.20       73.56       72.89       72.21       71.50       70.76       70.00    
  36  -1000.0       102.4       102.4       102.2       102.0       101.7       101.3       100.8       100.3       99.69    
        99.02       98.29       97.48       96.59       95.64       94.61       93.60       92.63       91.68       90.77    
        89.89       89.03       88.19       87.37       86.56       85.77       85.01       84.28       83.57       82.89    
        82.22       81.57       80.93       80.31       79.70       79.09       78.49       77.90       77.30       76.70    
        76.10       75.49       74.87       74.23       73.58       72.91       72.21       71.50       70.76       70.00    
  37  -1000.0       102.7       102.6       102.5       102.2       101.9       101.6       101.1       100.6       100.0    
        99.37       98.64       97.84       96.96       96.01       94.98       93.98       93.01       92.06       91.14    
        90.26       89.40       88.56       87.73       86.92       86.13       85.36       84.62       83.89       83.19    
        82.51       81.84       81.18       80.54       79.91       79.28       78.66       78.05       77.43       76.81    
        76.19       75.56       74.92       74.27       73.61       72.93       72.23       71.51       70.76       70.00    
  38  -1000.0       103.0       102.9       102.7       102.5       102.2       101.9       101.4       100.9       100.3    
        99.68       98.96       98.17       97.30       96.35       95.33       94.32       93.35       92.40       91.47    
        90.59       89.73       88.89       88.06       87.25       86.45       85.68       84.92       84.19       83.47    
        82.77       82.09       81.42       80.76       80.10       79.46       78.82       78.19       77.55       76.92    
        76.28       75.64       74.98       74.32       73.64       72.95       72.24       71.52       70.77       70.00    
  39  -1000.0       103.2       103.1       103.0       102.7       102.5       102.1       101.7       101.2       100.6    
        99.96       99.25       98.46       97.59       96.65       95.63       94.63       93.65       92.70       91.77    
        90.89       90.03       89.19       88.36       87.54       86.74       85.96       85.19       84.45       83.72    
        83.01       82.31       81.63       80.95       80.28       79.63       78.97       78.32       77.67       77.02    
        76.37       75.71       75.04       74.37       73.68       72.98       72.26       71.53       70.78       70.00    
  40  -1000.0       103.4       103.3       103.2       103.0       102.7       102.3       101.9       101.4       100.8    
        100.2       99.50       98.71       97.86       96.92       95.90       94.90       93.93       92.97       92.04    
        91.16       90.30       89.45       88.62       87.80       87.00       86.21       85.44       84.69       83.95    
        83.22       82.51       81.82       81.13       80.45       79.78       79.11       78.44       77.78       77.11    
        76.45       75.78       75.10       74.41       73.72       73.01       72.28       71.54       70.78       70.00    
  41  -1000.0       103.5       103.5       103.3       103.1       102.9       102.5       102.1       101.6       101.0    
        100.4       99.72       98.94       98.09       97.15       96.14       95.14       94.17       93.21       92.28    
        91.40       90.54       89.69       88.85       88.03       87.22       86.43       85.66       84.89       84.15    
        83.42       82.70       81.99       81.29       80.60       79.91       79.23       78.55       77.88       77.20    
        76.52       75.84       75.15       74.46       73.75       73.03       72.30       71.56       70.79       70.00    
  42  -1000.0       103.8       103.6       103.5       103.3       103.0       102.7       102.3       101.8       101.2    
        100.6       99.91       99.13       98.28       97.36       96.34       95.35       94.37       93.42       92.48    
        91.61       90.75       89.90       89.06       88.23       87.42       86.63       85.85       85.08       84.33    
        83.59       82.86       82.14       81.43       80.73       80.03       79.34       78.65       77.97       77.28    
        76.59       75.90       75.20       74.50       73.79       73.06       72.32       71.57       70.80       70.00    
  43  -1000.0       103.9       103.8       103.6       103.4       103.1       102.8       102.4       101.9       101.4    
        100.8       100.1       99.30       98.45       97.53       96.52       95.53       94.55       93.60       92.66    
        91.79       90.93       90.08       89.24       88.41       87.60       86.80       86.01       85.24       84.48    
        83.73       83.00       82.27       81.55       80.84       80.14       79.44       78.74       78.04       77.35    
        76.65       75.95       75.25       74.54       73.82       73.09       72.34       71.58       70.80       70.00    
  44  -1000.0       104.1       104.0       103.8       103.5       103.2       102.9       102.5       102.0       101.5    
        100.9       100.2       99.43       98.59       97.67       96.67       95.68       94.71       93.75       92.81    
        91.94       91.08       90.23       89.39       88.56       87.74       86.94       86.15       85.38       84.61    
        83.86       83.11       82.38       81.66       80.94       80.23       79.52       78.81       78.11       77.41    
        76.71       76.00       75.29       74.57       73.84       73.11       72.36       71.59       70.81       70.00    
  45  -1000.0       104.2       104.1       103.9       103.6       103.3       103.0       102.6       102.1       101.6    
        101.0       100.3       99.54       98.71       97.79       96.79       95.80       94.83       93.88       92.94    
        92.07       91.20       90.35       89.51       88.68       87.86       87.06       86.27       85.49       84.72    
        83.96       83.21       82.47       81.74       81.02       80.30       79.59       78.88       78.17       77.46    
        76.75       76.04       75.32       74.60       73.87       73.13       72.37       71.60       70.81       70.00    
  46  -1000.0     -1000.0       104.1       104.0       103.7       103.4       103.0       102.6       102.1       101.6    
        101.0       100.4       99.62       98.79       97.88       96.88       95.90       94.93       93.98       93.04    
        92.17       91.30       90.45       89.61       88.78       87.96       87.15       86.36       85.58       84.81    
        84.04       83.29       82.55       81.81       81.08       80.36       79.64       78.93       78.21       77.50    
        76.79       76.07       75.35       74.62       73.89       73.14       72.38       71.61       70.82       70.00    
  47  -1000.0     -1000.0     -1000.0       103.9       103.7       103.4       103.1       102.6       102.2       101.6    
        101.1       100.4       99.68       98.85       97.95       96.95       95.97       95.00       94.05       93.11    
        92.24       91.38       90.53       89.68       88.85       88.03       87.23       86.43       85.64       84.87    
        84.11       83.35       82.60       81.86       81.13       80.41       79.68       78.97       78.25       77.53    
        76.82       76.10       75.37       74.64       73.90       73.15       72.39       71.61       70.82       70.00    
  48  -1000.0     -1000.0     -1000.0     -1000.0       103.7       103.4       103.1       102.7       102.1       101.6    
        101.1       100.4       99.71       98.89       97.99       97.00       96.02       95.05       94.10       93.16    
        92.29       91.43       90.57       89.73       88.90       88.08       87.27       86.48       85.69       84.91    
        84.15       83.39       82.64       81.90       81.16       80.44       79.71       78.99       78.27       77.55    
        76.83       76.11       75.38       74.65       73.91       73.16       72.40       71.62       70.82       70.00    
  49  -1000.0     -1000.0     -1000.0     -1000.0     -1000.0       103.4       103.1       102.7       102.2       101.6    
        101.1       100.4       99.73       98.91       98.01       97.02       96.04       95.07       94.12       93.18    
        92.31       91.45       90.60       89.76       88.93       88.11       87.30       86.50       85.71       84.93    
        84.17       83.41       82.66       81.92       81.18       80.45       79.73       79.00       78.28       77.56    
        76.84       76.12       75.39       74.66       73.92       73.17       72.40       71.62       70.82       70.00    
  50  -1000.0     -1000.0     -1000.0     -1000.0     -1000.0     -1000.0     -1000.0     -1000.0     -1000.0     -1000.0    
      -1000.0     -1000.0     -1000.0     -1000.0     -1000.0     -1000.0     -1000.0     -1000.0     -1000.0     -1000.0    
      -1000.0     -1000.0     -1000.0     -1000.0     -1000.0     -1000.0     -1000.0     -1000.0     -1000.0     -1000.0    
      -1000.0     -1000.0     -1000.0     -1000.0     -1000.0     -1000.0     -1000.0     -1000.0     -1000.0     -1000.0    
      -1000.0     -1000.0     -1000.0     -1000.0     -1000.0     -1000.0     -1000.0     -1000.0     -1000.0       70.00    
1
              HEAD IN LAYER   2 AT END OF TIME STEP   1 IN STRESS PERIOD    1
  ---------------------------------------------------------------------------

            1           2           3           4           5           6           7           8           9          10
           11          12          13          14          15          16          17          18          19          20
           21          22          23          24          25          26          27          28          29          30
           31          32          33          34          35          36          37          38          39          40
           41          42          43          44          45          46          47          48          49          50
 ........................................................................................................................
   1  -1000.0     -1000.0     -1000.0     -1000.0     -1000.0     -1000.0     -1000.0     -1000.0     -1000.0     -1000.0    
      -1000.0     -1000.0     -1000.0     -1000.0     -1000.0     -1000.0     -1000.0     -1000.0     -1000.0     -1000.0    
      -1000.0     -1000.0     -1000.0     -1000.0     -1000.0     -1000.0     -1000.0     -1000.0     -1000.0     -1000.0    
      -1000.0     -1000.0     -1000.0     -1000.0     -1000.0     -1000.0     -1000.0     -1000.0     -1000.0     -1000.0    
      -1000.0     -1000.0     -1000.0     -1000.0     -1000.0     -1000.0     -1000.0     -1000.0     -1000.0       70.00    
   2  -1000.0     -1000.0     -1000.0     -1000.0     -1000.0     -1000.0     -1000.0       98.91       98.35       97.70    
        97.16       96.51       95.78       94.96       94.07       93.11       92.17       91.27       90.40       89.56    
        88.73       87.93       87.16       86.41       85.67       84.96       84.26       83.58       82.90       82.24    
        81.59       80.94       80.31       79.68       79.06       78.44       77.83       77.23       76.62       76.02    
        75.42       74.83       74.23       73.63       73.03       72.43       71.83       71.22       70.61       70.00    
   3  -1000.0     -1000.0     -1000.0     -1000.0     -1000.0     -1000.0       99.36       98.87       98.27       97.74    
        97.16       96.49       95.75       94.93       94.03       93.07       92.13       91.23       90.36       89.52    
        88.70       87.90       87.13       86.38       85.65       84.94       84.24       83.56       82.89       82.23    
        81.57       80.93       80.30       79.67       79.05       78.43       77.82       77.22       76.62       76.02    
        75.42       74.82       74.22       73.63       73.03       72.43       71.82       71.22       70.61       70.00    
   4  -1000.0     -1000.0     -1000.0     -1000.0     -1000.0       99.74       99.32       98.78       98.29       97.74    
        97.13       96.44       95.68       94.85       93.95       92.98       92.05       91.15       90.29       89.45    
        88.63       87.84       87.08       86.33       85.61       84.90       84.21       83.52       82.85       82.20    
        81.55       80.91       80.27       79.65       79.03       78.42       77.81       77.20       76.60       76.00    
        75.41       74.81       74.22       73.62       73.02       72.42       71.82       71.22       70.61       70.00    
   5  -1000.0     -1000.0     -1000.0     -1000.0       100.1       99.70       99.22       98.78       98.28       97.70    
        97.06       96.35       95.57       94.73       93.82       92.85       91.92       91.03       90.17       89.35    
        88.54       87.76       87.00       86.26       85.54       84.84       84.15       83.47       82.81       82.15    
        81.50       80.87       80.24       79.61       79.00       78.39       77.78       77.18       76.58       75.98    
        75.39       74.79       74.20       73.61       73.01       72.41       71.81       71.21       70.61       70.00    
   6  -1000.0     -1000.0     -1000.0       100.3       100.0       99.60       99.21       98.75       98.23       97.63    
        96.96       96.22       95.42       94.56       93.64       92.67       91.74       90.86       90.02       89.21    
        88.41       87.64       86.90       86.17       85.46       84.76       84.08       83.41       82.74       82.09    
        81.45       80.82       80.19       79.57       78.95       78.35       77.74       77.14       76.55       75.96    
        75.36       74.77       74.18       73.59       73.00       72.40       71.81       71.21       70.60       70.00    
   7  -1000.0     -1000.0       100.5       100.3       99.91       99.57       99.17       98.69       98.14       97.51    
        96.81       96.05       95.22       94.33       93.40       92.43       91.51       90.65       89.83       89.04    
        88.26       87.50       86.77       86.06       85.35       84.67       83.99       83.32       82.67       82.02    
        81.38       80.75       80.13       79.51       78.90       78.30       77.70       77.10       76.51       75.92    
        75.33       74.75       74.16       73.57       72.98       72.39       71.80       71.20       70.60       70.00    
   8  -1000.0       100.5       100.4       100.1       99.86       99.51       99.09       98.60       98.02       97.36    
        96.63       95.82       94.95       94.04       93.09       92.12       91.22       90.39       89.59       88.83    
        88.07       87.34       86.63       85.92       85.23       84.55       83.88       83.23       82.58       81.93    
        81.30       80.68       80.06       79.45       78.84       78.24       77.64       77.05       76.47       75.88    
        75.30       74.72       74.13       73.55       72.96       72.38       71.79       71.19       70.60       70.00    
   9  -1000.0       100.4       100.2       100.0       99.78       99.43       99.00       98.48       97.87       97.18    
        96.40       95.55       94.62       93.65       92.68       91.72       90.86       90.07       89.32       88.59    
        87.87       87.16       86.46       85.77       85.10       84.43       83.77       83.11       82.47       81.84    
        81.21       80.59       79.98       79.37       78.77       78.17       77.58       77.00       76.41       75.83    
        75.26       74.68       74.10       73.52       72.94       72.36       71.78       71.19       70.59       70.00    
  10  -1000.0       100.2       100.1       99.96       99.69       99.33       98.88       98.34       97.71       96.98    
        96.15       95.22       94.22       93.16       92.13       91.21       90.43       89.71       89.02       88.34    
        87.65       86.96       86.28       85.61       84.94       84.28       83.63       82.99       82.35       81.72    
        81.10       80.49       79.88       79.28       78.69       78.10       77.51       76.93       76.35       75.78    
        75.21       74.64       74.07       73.50       72.92       72.34       71.76       71.18       70.59       70.00    
  11  -1000.0       100.1       100.0       99.86       99.58       99.21       98.75       98.19       97.53       96.76    
        95.88       94.87       93.74       92.52       91.35       90.55       89.92       89.32       88.71       88.07    
        87.42       86.76       86.10       85.44       84.78       84.13       83.49       82.85       82.22       81.60    
        80.99       80.38       79.78       79.18       78.59       78.01       77.43       76.86       76.29       75.72    
        75.16       74.59       74.03       73.46       72.90       72.32       71.75       71.17       70.59       70.00    
  12  -1000.0       100.0       99.93       99.75       99.46       99.08       98.61       98.03       97.35       96.55    
        95.62       94.52       93.23       91.70       90.06       89.70       89.38       88.93       88.40       87.82    
        87.19       86.55       85.90       85.26       84.61       83.97       83.33       82.71       82.08       81.47    
        80.86       80.26       79.67       79.08       78.49       77.92       77.35       76.78       76.22       75.66    
        75.10       74.55       73.99       73.43       72.87       72.31       71.74       71.16       70.58       70.00    
  13  -1000.0       99.92       99.82       99.63       99.34       98.95       98.47       97.88       97.18       96.36    
        95.40       94.25       92.82       90.83       87.33       88.82       88.94       88.63       88.15       87.59    
        86.98       86.35       85.71       85.07       84.43       83.80       83.17       82.55       81.93       81.33    
        80.72       80.13       79.54       78.96       78.38       77.81       77.25       76.69       76.14       75.59    
        75.04       74.49       73.95       73.40       72.84       72.29       71.72       71.15       70.58       70.00    
  14  -1000.0       99.80       99.70       99.50       99.21       98.82       98.33       97.73       97.03       96.21    
        95.25       94.14       92.83       91.28       89.63       89.27       88.94       88.50       87.98       87.40    
        86.78       86.15       85.51       84.87       84.24       83.61       82.99       82.38       81.77       81.17    
        80.58       79.99       79.41       78.84       78.27       77.70       77.15       76.60       76.05       75.51    
        74.97       74.44       73.90       73.36       72.82       72.27       71.71       71.15       70.57       70.00    
  15  -1000.0       99.68       99.58       99.38       99.08       98.68       98.18       97.58       96.88       96.07    
        95.15       94.10       92.94       91.69       90.50       89.69       89.06       88.46       87.85       87.23    
        86.59       85.95       85.31       84.67       84.04       83.42       82.81       82.20       81.60       81.01    
        80.42       79.85       79.27       78.70       78.14       77.59       77.04       76.49       75.96       75.43    
        74.91       74.38       73.86       73.33       72.80       72.25       71.70       71.14       70.57       70.00    
  16  -1000.0       99.56       99.46       99.25       98.94       98.53       98.03       97.43       96.73       95.94    
        95.05       94.07       93.01       91.91       90.85       89.92       89.13       88.42       87.74       87.07    
        86.41       85.75       85.10       84.47       83.84       83.22       82.61       82.01       81.42       80.84    
        80.26       79.69       79.13       78.57       78.01       77.46       76.92       76.39       75.86       75.35    
        74.84       74.33       73.82       73.30       72.78       72.25       71.70       71.14       70.57       70.00    
  17  -1000.0       99.44       99.34       99.12       98.80       98.38       97.87       97.26       96.57       95.79    
        94.92       93.99       93.00       91.98       90.97       89.98       89.12       88.34       87.61       86.90    
        86.21       85.54       84.89       84.25       83.62       83.01       82.41       81.82       81.24       80.66    
        80.10       79.54       78.98       78.43       77.88       77.33       76.80       76.27       75.76       75.26    
        74.76       74.27       73.78       73.28       72.77       72.24       71.70       71.14       70.58       70.00    
  18  -1000.0       99.34       99.22       98.99       98.66       98.23       97.70       97.08       96.38       95.61    
        94.76       93.85       92.90       91.92       90.92       89.93       89.03       88.21       87.44       86.71    
        86.00       85.31       84.65       84.01       83.39       82.78       82.19       81.61       81.04       80.48    
        79.93       79.38       78.83       78.28       77.74       77.21       76.68       76.16       75.65       75.17    
        74.70       74.23       73.75       73.27       72.77       72.25       71.71       71.16       70.58       70.00    
  19  -1000.0       99.24       99.12       98.87       98.52       98.06       97.51       96.87       96.16       95.38    
        94.54       93.65       92.71       91.75       90.76       89.76       88.85       88.01       87.23       86.48    
        85.76       85.06       84.40       83.76       83.15       82.55       81.97       81.40       80.85       80.30    
        79.76       79.22       78.68       78.15       77.61       77.08       76.55       76.04       75.55       75.08    
        74.63       74.19       73.74       73.27       72.79       72.28       71.74       71.18       70.60       70.00    
  20  -1000.0       99.17       99.03       98.76       98.37       97.88       97.29       96.63       95.90       95.11    
        94.26       93.37       92.44       91.48       90.50       89.49       88.58       87.75       86.99       86.24    
        85.49       84.78       84.12       83.49       82.89       82.31       81.74       81.19       80.65       80.12    
        79.59       79.07       78.55       78.02       77.49       76.96       76.44       75.93       75.44       75.00    
        74.58       74.16       73.74       73.29       72.82       72.32       71.78       71.21       70.62       70.00    
  21  -1000.0       99.14       98.98       98.66       98.22       97.68       97.05       96.35       95.59       94.77    
        93.91       93.01       92.08       91.12       90.13       89.12       88.21       87.40       86.75       85.99    
        85.17       84.47       83.82       83.22       82.63       82.07       81.52       80.99       80.47       79.95    
        79.44       78.94       78.42       77.91       77.39       76.87       76.35       75.83       75.35       74.94    
        74.55       74.16       73.76       73.33       72.88       72.38       71.85       71.27       70.65       70.00    
  22  -1000.0       99.17       98.97       98.59       98.08       97.47       96.78       96.02       95.22       94.37    
        93.48       92.57       91.62       90.65       89.66       88.64       87.72       86.91       86.25       85.50    
        84.75       84.11       83.51       82.94       82.38       81.84       81.32       80.80       80.30       79.81    
        79.32       78.82       78.33       77.83       77.33       76.81       76.30       75.78       75.29       74.92    
        74.56       74.20       73.81       73.40       72.96       72.47       71.93       71.34       70.69       70.00    
  23  -1000.0       99.31       99.03       98.55       97.93       97.23       96.46       95.64       94.78       93.89    
        92.98       92.04       91.08       90.10       89.09       88.07       87.12       86.25       85.47       84.74    
        84.23       83.73       83.22       82.69       82.16       81.65       81.15       80.66       80.17       79.70    
        79.22       78.75       78.27       77.79       77.30       76.80       76.31       75.82       75.37       74.98    
        74.62       74.26       73.89       73.49       73.05       72.57       72.03       71.43       70.75       70.00    
  24  -1000.0       99.64       99.20       98.54       97.78       96.95       96.08       95.19       94.27       93.33    
        92.38       91.41       90.43       89.44       88.43       87.40       86.42       85.50       84.64       83.90    
        83.73       83.42       83.00       82.52       82.02       81.52       81.04       80.57       80.10       79.64    
        79.18       78.72       78.25       77.79       77.32       76.84       76.37       75.91       75.48       75.09    
        74.72       74.36       73.98       73.58       73.15       72.67       72.14       71.53       70.82       70.00    
  25  -1000.0       100.3       99.47       98.54       97.58       96.61       95.63       94.64       93.66       92.67    
        91.67       90.68       89.68       88.68       87.67       86.66       85.66       84.67       83.69       82.78    
        83.41       83.32       82.96       82.50       82.01       81.53       81.05       80.59       80.13       79.67    
        79.22       78.76       78.30       77.84       77.38       76.92       76.47       76.03       75.60       75.21    
        74.83       74.45       74.06       73.66       73.22       72.75       72.21       71.60       70.88       70.00    
  26  -1000.0       99.93       99.48       98.83       98.08       97.26       96.40       95.51       94.60       93.67    
        92.73       91.77       90.79       89.79       88.78       87.72       86.72       85.76       84.87       84.11    
        83.95       83.65       83.23       82.74       82.24       81.74       81.25       80.77       80.30       79.83    
        79.36       78.90       78.44       77.98       77.52       77.06       76.60       76.16       75.73       75.32    
        74.92       74.52       74.11       73.69       73.23       72.73       72.18       71.56       70.83       70.00    
  27  -1000.0       99.88       99.60       99.13       98.53       97.84       97.09       96.29       95.45       94.58    
        93.68       92.76       91.80       90.82       89.79       88.73       87.73       86.78       85.92       85.15    
        84.67       84.19       83.68       83.14       82.61       82.08       81.56       81.05       80.56       80.07    
        79.59       79.11       78.63       78.16       77.69       77.22       76.76       76.31       75.86       75.43    
        75.01       74.58       74.14       73.69       73.21       72.69       72.12       71.48       70.77       70.00    
  28  -1000.0       100.0       99.81       99.45       98.96       98.38       97.72       96.99       96.22       95.40    
        94.55       93.65       92.72       91.74       90.73       89.66       88.66       87.72       86.84       86.05    
        85.41       84.81       84.21       83.63       83.05       82.48       81.93       81.40       80.88       80.36    
        79.86       79.36       78.86       78.37       77.88       77.40       76.93       76.46       76.00       75.54    
        75.09       74.63       74.17       73.69       73.18       72.64       72.06       71.42       70.73       70.00    
  29  -1000.0       100.2       100.1       99.80       99.39       98.88       98.29       97.63       96.92       96.15    
        95.33       94.46       93.55       92.59       91.58       90.51       89.51       88.56       87.68       86.86    
        86.13       85.44       84.78       84.15       83.53       82.93       82.34       81.78       81.22       80.68    
        80.15       79.63       79.11       78.60       78.10       77.60       77.10       76.61       76.13       75.65    
        75.17       74.69       74.20       73.69       73.16       72.60       72.01       71.37       70.70       70.00    
  30  -1000.0       100.5       100.4       100.2       99.80       99.35       98.82       98.21       97.54       96.81    
        96.03       95.19       94.29       93.35       92.35       91.29       90.28       89.33       88.43       87.59    
        86.80       86.06       85.35       84.67       84.01       83.38       82.76       82.17       81.58       81.01    
        80.46       79.91       79.37       78.84       78.31       77.79       77.28       76.77       76.27       75.76    
        75.26       74.75       74.23       73.70       73.15       72.58       71.97       71.34       70.68       70.00    
  31  -1000.0       100.9       100.7       100.5       100.2       99.80       99.31       98.75       98.11       97.42    
        96.66       95.84       94.97       94.04       93.05       91.99       90.99       90.03       89.12       88.25    
        87.42       86.64       85.90       85.18       84.49       83.82       83.18       82.55       81.94       81.35    
        80.77       80.19       79.63       79.08       78.53       77.99       77.46       76.93       76.40       75.87    
        75.35       74.82       74.28       73.72       73.16       72.57       71.95       71.32       70.67       70.00    
  32  -1000.0       101.2       101.1       100.9       100.6       100.2       99.76       99.23       98.63       97.96    
        97.23       96.44       95.58       94.66       93.68       92.63       91.62       90.66       89.74       88.86    
        88.00       87.19       86.41       85.67       84.95       84.26       83.58       82.93       82.29       81.68    
        81.07       80.48       79.89       79.32       78.75       78.19       77.63       77.08       76.53       75.99    
        75.44       74.88       74.32       73.75       73.17       72.57       71.95       71.31       70.66       70.00    
  33  -1000.0       101.5       101.4       101.2       101.0       100.6       100.2       99.68       99.10       98.46    
        97.75       96.97       96.13       95.22       94.24       93.20       92.19       91.23       90.30       89.41    
        88.53       87.70       86.90       86.13       85.38       84.66       83.97       83.29       82.63       81.99    
        81.36       80.75       80.14       79.55       78.96       78.38       77.80       77.23       76.67       76.10    
        75.53       74.96       74.38       73.79       73.19       72.58       71.95       71.31       70.66       70.00    
  34  -1000.0       101.8       101.7       101.6       101.3       101.0       100.6       100.1       99.54       98.91    
        98.22       97.46       96.63       95.73       94.76       93.72       92.71       91.74       90.81       89.91    
        89.01       88.16       87.34       86.55       85.79       85.05       84.33       83.64       82.96       82.29    
        81.65       81.01       80.39       79.77       79.16       78.56       77.97       77.38       76.79       76.21    
        75.62       75.03       74.44       73.83       73.22       72.60       71.96       71.32       70.66       70.00    
  35  -1000.0       102.1       102.1       101.9       101.7       101.3       100.9       100.5       99.93       99.32    
        98.64       97.89       97.07       96.18       95.22       94.19       93.18       92.21       91.27       90.36    
        89.45       88.59       87.75       86.95       86.17       85.41       84.67       83.96       83.26       82.58    
        81.91       81.26       80.62       79.98       79.36       78.74       78.13       77.52       76.92       76.32    
        75.71       75.11       74.50       73.88       73.25       72.62       71.98       71.32       70.66       70.00    
  36  -1000.0       102.4       102.4       102.2       102.0       101.7       101.3       100.8       100.3       99.69    
        99.02       98.29       97.48       96.59       95.64       94.61       93.60       92.63       91.68       90.77    
        89.86       88.98       88.13       87.31       86.52       85.74       84.99       84.26       83.55       82.85    
        82.16       81.49       80.83       80.18       79.54       78.91       78.28       77.66       77.04       76.42    
        75.80       75.18       74.56       73.93       73.29       72.65       71.99       71.34       70.67       70.00    
  37  -1000.0       102.7       102.6       102.5       102.2       101.9       101.6       101.1       100.6       100.0    
        99.37       98.64       97.84       96.96       96.01       94.98       93.98       93.01       92.06       91.14    
        90.22       89.33       88.48       87.65       86.84       86.05       85.29       84.54       83.81       83.10    
        82.40       81.71       81.04       80.37       79.72       79.07       78.43       77.79       77.16       76.52    
        75.89       75.25       74.62       73.98       73.33       72.67       72.01       71.35       70.68       70.00    
  38  -1000.0       103.0       102.9       102.7       102.5       102.2       101.9       101.4       100.9       100.3    
        99.68       98.96       98.17       97.30       96.35       95.33       94.32       93.35       92.40       91.47    
        90.55       89.65       88.79       87.95       87.13       86.33       85.56       84.80       84.05       83.33    
        82.61       81.92       81.23       80.55       79.88       79.22       78.56       77.91       77.26       76.62    
        75.97       75.33       74.68       74.02       73.37       72.70       72.04       71.36       70.68       70.00    
  39  -1000.0       103.2       103.1       103.0       102.7       102.5       102.1       101.7       101.2       100.6    
        99.96       99.25       98.46       97.59       96.65       95.63       94.63       93.65       92.70       91.77    
        90.84       89.94       89.07       88.22       87.40       86.59       85.80       85.03       84.28       83.54    
        82.81       82.10       81.40       80.71       80.03       79.36       78.69       78.03       77.37       76.71    
        76.05       75.39       74.73       74.07       73.41       72.73       72.06       71.38       70.69       70.00    
  40  -1000.0       103.4       103.3       103.2       103.0       102.7       102.3       101.9       101.4       100.8    
        100.2       99.50       98.71       97.86       96.92       95.90       94.90       93.93       92.97       92.04    
        91.11       90.20       89.33       88.47       87.63       86.82       86.02       85.24       84.48       83.73    
        83.00       82.27       81.56       80.86       80.17       79.48       78.80       78.13       77.46       76.79    
        76.12       75.46       74.79       74.12       73.44       72.76       72.08       71.39       70.70       70.00    
  41  -1000.0       103.5       103.5       103.3       103.1       102.9       102.5       102.1       101.6       101.0    
        100.4       99.72       98.94       98.09       97.15       96.14       95.14       94.17       93.21       92.28    
        91.34       90.43       89.55       88.69       87.85       87.02       86.22       85.43       84.66       83.90    
        83.16       82.43       81.71       80.99       80.29       79.60       78.91       78.23       77.55       76.87    
        76.19       75.52       74.84       74.16       73.48       72.79       72.10       71.40       70.70       70.00    
  42  -1000.0       103.8       103.6       103.5       103.3       103.0       102.7       102.3       101.8       101.2    
        100.6       99.91       99.13       98.28       97.35       96.34       95.35       94.37       93.42       92.48    
        91.55       90.64       89.75       88.88       88.03       87.21       86.39       85.60       84.82       84.05    
        83.30       82.56       81.83       81.11       80.40       79.70       79.00       78.31       77.62       76.94    
        76.25       75.57       74.88       74.20       73.51       72.81       72.12       71.41       70.71       70.00    
  43  -1000.0       103.9       103.8       103.6       103.4       103.1       102.8       102.4       101.9       101.4    
        100.8       100.1       99.30       98.45       97.53       96.52       95.53       94.55       93.60       92.66    
        91.72       90.81       89.92       89.05       88.20       87.36       86.55       85.75       84.96       84.19    
        83.43       82.68       81.95       81.22       80.50       79.79       79.09       78.39       77.69       77.00    
        76.31       75.62       74.92       74.23       73.54       72.84       72.13       71.43       70.71       70.00    
  44  -1000.0     -1000.0       104.0       103.8       103.5       103.2       102.9       102.5       102.0       101.5    
        100.9       100.2       99.43       98.59       97.67       96.67       95.68       94.71       93.75       92.81    
        91.87       90.96       90.07       89.19       88.34       87.50       86.68       85.87       85.08       84.30    
        83.54       82.78       82.04       81.31       80.59       79.87       79.16       78.45       77.75       77.05    
        76.35       75.66       74.96       74.26       73.56       72.86       72.15       71.43       70.72       70.00    
  45  -1000.0     -1000.0     -1000.0       103.9       103.6       103.3       103.0       102.6       102.1       101.6    
        101.0       100.3       99.54       98.71       97.79       96.79       95.80       94.83       93.88       92.94    
        92.00       91.08       90.19       89.31       88.45       87.61       86.78       85.97       85.18       84.40    
        83.63       82.87       82.12       81.38       80.66       79.93       79.22       78.51       77.80       77.10    
        76.39       75.69       74.99       74.29       73.58       72.87       72.16       71.44       70.72       70.00    
  46  -1000.0     -1000.0     -1000.0     -1000.0       103.7       103.4       103.0       102.6       102.1       101.6    
        101.0       100.4       99.62       98.79       97.88       96.88       95.90       94.93       93.98       93.04    
        92.10       91.18       90.28       89.40       88.54       87.70       86.87       86.06       85.26       84.47    
        83.70       82.94       82.19       81.44       80.71       79.98       79.26       78.55       77.84       77.13    
        76.42       75.72       75.01       74.31       73.60       72.89       72.17       71.45       70.73       70.00    
  47  -1000.0     -1000.0     -1000.0     -1000.0     -1000.0       103.4       103.1       102.6       102.2       101.6    
        101.1       100.4       99.68       98.85       97.95       96.95       95.97       95.00       94.05       93.11    
        92.17       91.25       90.35       89.47       88.61       87.76       86.93       86.12       85.32       84.53    
        83.75       82.99       82.24       81.49       80.75       80.02       79.30       78.58       77.87       77.16    
        76.45       75.74       75.03       74.32       73.61       72.90       72.18       71.45       70.73       70.00    
  48  -1000.0     -1000.0     -1000.0     -1000.0     -1000.0     -1000.0       103.1       102.7       102.1       101.6    
        101.1       100.4       99.71       98.89       97.99       97.00       96.02       95.05       94.10       93.16    
        92.22       91.30       90.40       89.52       88.66       87.81       86.98       86.16       85.36       84.57    
        83.79       83.02       82.27       81.52       80.78       80.05       79.32       78.60       77.89       77.18    
        76.46       75.75       75.04       74.33       73.62       72.90       72.18       71.46       70.73       70.00    
  49  -1000.0     -1000.0     -1000.0     -1000.0     -1000.0     -1000.0     -1000.0       102.7       102.2       101.6    
        101.1       100.4       99.73       98.91       98.01       97.02       96.04       95.07       94.12       93.18    
        92.24       91.32       90.42       89.54       88.68       87.83       87.00       86.18       85.38       84.59    
        83.81       83.04       82.28       81.54       80.80       80.06       79.34       78.62       77.90       77.18    
        76.47       75.76       75.05       74.34       73.62       72.91       72.19       71.46       70.73       70.00    
  50  -1000.0     -1000.0     -1000.0     -1000.0     -1000.0     -1000.0     -1000.0     -1000.0     -1000.0     -1000.0    
      -1000.0     -1000.0     -1000.0     -1000.0     -1000.0     -1000.0     -1000.0     -1000.0     -1000.0     -1000.0    
      -1000.0     -1000.0     -1000.0     -1000.0     -1000.0     -1000.0     -1000.0     -1000.0     -1000.0     -1000.0    
      -1000.0     -1000.0     -1000.0     -1000.0     -1000.0     -1000.0     -1000.0     -1000.0     -1000.0     -1000.0    
      -1000.0     -1000.0     -1000.0     -1000.0     -1000.0     -1000.0     -1000.0     -1000.0     -1000.0       70.00    
1
              HEAD IN LAYER   3 AT END OF TIME STEP   1 IN STRESS PERIOD    1
  ---------------------------------------------------------------------------

            1           2           3           4           5           6           7           8           9          10
           11          12          13          14          15          16          17          18          19          20
           21          22          23          24          25          26          27          28          29          30
           31          32          33          34          35          36          37          38          39          40
[...]
        84.51       84.26       83.96       83.60       83.18       82.72       82.22       81.69       81.14       80.55    
        79.94       79.31       78.64       77.94       77.19       76.37       75.46       74.42       73.38       73.35    
        73.30       73.14       72.88       72.56       72.19       71.79       71.36       70.92       70.46       70.00    
  24  -1000.0       99.64       99.20       98.54       97.78       96.95       96.08       95.19       94.27       93.33    
        92.38       91.41       90.43       89.44       88.43       87.40       86.42       85.50       84.64       83.90    
        84.05       84.04       83.86       83.56       83.18       82.74       82.25       81.73       81.18       80.60    
        80.00       79.37       78.72       78.03       77.31       76.55       75.75       74.95       74.24       73.86    
        73.59       73.31       72.99       72.63       72.24       71.82       71.39       70.93       70.47       70.00    
  25  -1000.0       100.3       99.47       98.54       97.58       96.61       95.63       94.65       93.66       92.67    
        91.67       90.68       89.68       88.68       87.68       86.66       85.66       84.67       83.69       82.78    
        83.77       83.99       83.88       83.62       83.25       82.82       82.33       81.81       81.26       80.69    
        80.09       79.47       78.83       78.16       77.47       76.77       76.05       75.36       74.75       74.27    
        73.88       73.50       73.12       72.73       72.31       71.87       71.42       70.95       70.48       70.00    
  26  -1000.0       99.93       99.48       98.83       98.08       97.26       96.40       95.51       94.60       93.67    
        92.73       91.77       90.79       89.79       88.78       87.72       86.72       85.76       84.87       84.11    
        84.27       84.26       84.08       83.78       83.40       82.95       82.46       81.94       81.38       80.81    
        80.21       79.60       78.96       78.32       77.66       76.99       76.33       75.69       75.10       74.59    
        74.13       73.70       73.27       72.83       72.39       71.93       71.46       70.98       70.49       70.00    
  27  -1000.0       99.88       99.60       99.13       98.53       97.84       97.09       96.29       95.45       94.58    
        93.68       92.76       91.80       90.82       89.79       88.73       87.73       86.78       85.92       85.15    
        84.94       84.71       84.41       84.05       83.62       83.15       82.64       82.10       81.54       80.96    
        80.36       79.75       79.12       78.49       77.85       77.21       76.57       75.96       75.39       74.85    
        74.35       73.88       73.41       72.94       72.47       71.99       71.50       71.01       70.50       70.00    
  28  -1000.0       100.0       99.81       99.45       98.96       98.38       97.72       96.99       96.22       95.40    
        94.55       93.65       92.72       91.74       90.73       89.66       88.66       87.72       86.84       86.05    
        85.63       85.24       84.82       84.38       83.90       83.39       82.85       82.30       81.72       81.13    
        80.53       79.92       79.30       78.67       78.04       77.41       76.80       76.20       75.62       75.07    
        74.55       74.04       73.54       73.05       72.55       72.05       71.54       71.03       70.52       70.00    
  29  -1000.0       100.2       100.1       99.80       99.39       98.88       98.29       97.63       96.92       96.15    
        95.33       94.46       93.55       92.59       91.58       90.51       89.51       88.56       87.68       86.86    
        86.30       85.78       85.27       84.75       84.22       83.67       83.10       82.52       81.93       81.33    
        80.72       80.10       79.48       78.85       78.23       77.61       77.00       76.40       75.82       75.26    
        74.72       74.19       73.67       73.15       72.63       72.11       71.59       71.06       70.53       70.00    
  30  -1000.0       100.5       100.4       100.2       99.80       99.35       98.82       98.21       97.54       96.81    
        96.03       95.19       94.29       93.35       92.35       91.29       90.28       89.33       88.43       87.59    
        86.93       86.32       85.73       85.14       84.56       83.97       83.37       82.76       82.15       81.54    
        80.92       80.29       79.67       79.04       78.42       77.80       77.19       76.59       76.00       75.43    
        74.87       74.32       73.78       73.24       72.70       72.17       71.63       71.09       70.54       70.00    
  31  -1000.0       100.9       100.7       100.5       100.2       99.80       99.31       98.75       98.11       97.42    
        96.66       95.84       94.97       94.04       93.04       91.99       90.99       90.03       89.12       88.25    
        87.52       86.84       86.18       85.54       84.91       84.28       83.65       83.02       82.39       81.76    
        81.12       80.49       79.86       79.23       78.60       77.98       77.37       76.76       76.17       75.58    
        75.01       74.45       73.89       73.33       72.78       72.22       71.67       71.11       70.56       70.00    
  32  -1000.0       101.2       101.1       100.9       100.6       100.2       99.76       99.23       98.63       97.96    
        97.23       96.44       95.58       94.66       93.68       92.63       91.62       90.66       89.74       88.86    
        88.07       87.33       86.62       85.93       85.26       84.59       83.94       83.28       82.63       81.98    
        81.34       80.69       80.05       79.41       78.78       78.15       77.53       76.92       76.32       75.73    
        75.14       74.56       73.98       73.41       72.84       72.28       71.71       71.14       70.57       70.00    
  33  -1000.0       101.5       101.4       101.2       101.0       100.6       100.2       99.68       99.10       98.46    
        97.75       96.97       96.13       95.22       94.24       93.20       92.19       91.23       90.30       89.41    
        88.58       87.79       87.04       86.31       85.60       84.91       84.22       83.54       82.87       82.21    
        81.55       80.89       80.24       79.60       78.96       78.32       77.69       77.07       76.46       75.86    
        75.26       74.66       74.08       73.49       72.91       72.33       71.74       71.16       70.58       70.00    
  34  -1000.0       101.8       101.7       101.6       101.3       101.0       100.6       100.1       99.54       98.91    
        98.22       97.46       96.63       95.73       94.76       93.72       92.71       91.74       90.81       89.91    
        89.05       88.22       87.44       86.68       85.94       85.21       84.50       83.80       83.11       82.43    
        81.76       81.09       80.43       79.77       79.12       78.48       77.84       77.21       76.59       75.98    
        75.37       74.76       74.16       73.56       72.97       72.37       71.78       71.19       70.59       70.00    
  35  -1000.0       102.1       102.1       101.9       101.7       101.3       100.9       100.5       99.93       99.32    
        98.64       97.89       97.07       96.18       95.22       94.19       93.18       92.21       91.27       90.36    
        89.47       88.62       87.81       87.02       86.25       85.51       84.77       84.05       83.35       82.65    
        81.96       81.28       80.61       79.94       79.28       78.63       77.99       77.35       76.72       76.09    
        75.47       74.85       74.24       73.63       73.02       72.42       71.81       71.21       70.60       70.00    
  36  -1000.0       102.4       102.4       102.2       102.0       101.7       101.3       100.8       100.3       99.69    
        99.02       98.29       97.48       96.59       95.64       94.61       93.60       92.63       91.68       90.77    
        89.86       88.99       88.15       87.34       86.55       85.78       85.03       84.30       83.57       82.86    
        82.16       81.46       80.78       80.10       79.44       78.77       78.12       77.47       76.83       76.19    
        75.56       74.94       74.31       73.69       73.08       72.46       71.84       71.23       70.61       70.00    
  37  -1000.0       102.7       102.6       102.5       102.2       101.9       101.6       101.1       100.6       100.0    
        99.37       98.64       97.84       96.96       96.01       94.98       93.98       93.01       92.06       91.14    
        90.22       89.33       88.47       87.64       86.83       86.05       85.28       84.52       83.79       83.06    
        82.34       81.64       80.95       80.26       79.58       78.91       78.25       77.59       76.94       76.29    
        75.65       75.02       74.38       73.75       73.12       72.50       71.87       71.25       70.62       70.00    
  38  -1000.0       103.0       102.9       102.7       102.5       102.2       101.9       101.4       100.9       100.3    
        99.68       98.96       98.17       97.30       96.35       95.33       94.32       93.35       92.40       91.47    
        90.54       89.63       88.76       87.92       87.09       86.29       85.51       84.74       83.99       83.25    
        82.52       81.81       81.10       80.40       79.72       79.04       78.36       77.70       77.04       76.38    
        75.73       75.09       74.45       73.81       73.17       72.53       71.90       71.27       70.63       70.00    
  39  -1000.0       103.2       103.1       103.0       102.7       102.5       102.1       101.7       101.2       100.6    
        99.96       99.25       98.46       97.59       96.65       95.63       94.63       93.65       92.70       91.77    
        90.83       89.91       89.03       88.17       87.33       86.51       85.72       84.94       84.17       83.42    
        82.68       81.96       81.24       80.54       79.84       79.15       78.47       77.80       77.13       76.47    
        75.81       75.16       74.50       73.86       73.21       72.57       71.92       71.28       70.64       70.00    
  40  -1000.0       103.4       103.3       103.2       103.0       102.7       102.3       101.9       101.4       100.8    
        100.2       99.50       98.71       97.86       96.92       95.90       94.90       93.93       92.97       92.04    
        91.09       90.16       89.27       88.39       87.55       86.72       85.91       85.12       84.34       83.58    
        82.84       82.10       81.38       80.66       79.96       79.26       78.57       77.89       77.21       76.54    
        75.88       75.22       74.56       73.90       73.25       72.60       71.95       71.30       70.65       70.00    
  41  -1000.0       103.5       103.5       103.3       103.1       102.9       102.5       102.1       101.6       101.0    
        100.4       99.72       98.94       98.09       97.15       96.14       95.14       94.17       93.21       92.28    
        91.32       90.38       89.48       88.60       87.74       86.90       86.08       85.28       84.50       83.73    
        82.97       82.23       81.50       80.78       80.06       79.36       78.66       77.97       77.29       76.61    
        75.94       75.27       74.61       73.94       73.28       72.62       71.97       71.31       70.66       70.00    
  42  -1000.0     -1000.0       103.6       103.5       103.3       103.0       102.7       102.3       101.8       101.2    
        100.6       99.91       99.13       98.28       97.35       96.34       95.35       94.37       93.42       92.48    
        91.52       90.58       89.67       88.78       87.91       87.07       86.24       85.43       84.64       83.86    
        83.10       82.35       81.61       80.88       80.16       79.45       78.74       78.05       77.36       76.67    
        76.00       75.32       74.65       73.98       73.31       72.65       71.99       71.32       70.66       70.00    
  43  -1000.0     -1000.0     -1000.0       103.6       103.4       103.1       102.8       102.4       101.9       101.4    
        100.8       100.1       99.30       98.45       97.53       96.52       95.53       94.55       93.60       92.66    
        91.69       90.75       89.83       88.94       88.06       87.21       86.38       85.56       84.76       83.98    
        83.21       82.45       81.70       80.97       80.24       79.52       78.82       78.11       77.42       76.73    
        76.04       75.36       74.69       74.01       73.34       72.67       72.00       71.33       70.67       70.00    
  44  -1000.0     -1000.0     -1000.0     -1000.0       103.5       103.2       102.9       102.5       102.0       101.5    
        100.9       100.2       99.43       98.59       97.67       96.67       95.68       94.71       93.75       92.81    
        91.84       90.89       89.97       89.07       88.19       87.33       86.49       85.67       84.87       84.08    
        83.30       82.54       81.78       81.04       80.31       79.59       78.88       78.17       77.47       76.78    
        76.09       75.40       74.72       74.04       73.36       72.69       72.02       71.34       70.67       70.00    
  45  -1000.0     -1000.0     -1000.0     -1000.0     -1000.0       103.3       103.0       102.6       102.1       101.6    
        101.0       100.3       99.54       98.71       97.79       96.79       95.80       94.83       93.88       92.94    
        91.96       91.01       90.09       89.18       88.30       87.44       86.59       85.76       84.95       84.16    
        83.38       82.61       81.85       81.11       80.37       79.65       78.93       78.22       77.51       76.82    
        76.12       75.43       74.75       74.06       73.38       72.70       72.03       71.35       70.68       70.00    
  46  -1000.0     -1000.0     -1000.0     -1000.0     -1000.0     -1000.0       103.0       102.6       102.1       101.6    
        101.0       100.4       99.62       98.79       97.88       96.88       95.90       94.93       93.98       93.04    
        92.06       91.11       90.18       89.27       88.38       87.52       86.67       85.84       85.02       84.23    
        83.44       82.67       81.91       81.16       80.42       79.69       78.97       78.26       77.55       76.85    
        76.15       75.46       74.77       74.08       73.40       72.72       72.04       71.36       70.68       70.00    
  47  -1000.0     -1000.0     -1000.0     -1000.0     -1000.0     -1000.0     -1000.0       102.6       102.2       101.6    
        101.1       100.4       99.68       98.85       97.95       96.95       95.97       95.00       94.05       93.11    
        92.13       91.18       90.25       89.34       88.45       87.58       86.73       85.89       85.08       84.28    
        83.49       82.71       81.95       81.20       80.46       79.73       79.00       78.29       77.58       76.87    
        76.17       75.48       74.79       74.10       73.41       72.73       72.04       71.36       70.68       70.00    
  48  -1000.0     -1000.0     -1000.0     -1000.0     -1000.0     -1000.0     -1000.0     -1000.0       102.1       101.6    
        101.1       100.4       99.71       98.89       97.99       97.00       96.02       95.05       94.10       93.16    
        92.18       91.22       90.29       89.38       88.49       87.62       86.77       85.93       85.11       84.31    
        83.52       82.74       81.98       81.23       80.48       79.75       79.02       78.30       77.59       76.89    
        76.19       75.49       74.80       74.11       73.42       72.73       72.05       71.37       70.68       70.00    
  49  -1000.0     -1000.0     -1000.0     -1000.0     -1000.0     -1000.0     -1000.0     -1000.0     -1000.0       101.6    
        101.1       100.4       99.73       98.91       98.01       97.02       96.04       95.07       94.12       93.18    
        92.20       91.25       90.31       89.40       88.51       87.64       86.79       85.95       85.13       84.33    
        83.54       82.76       81.99       81.24       80.49       79.76       79.03       78.31       77.60       76.89    
        76.19       75.50       74.80       74.11       73.42       72.74       72.05       71.37       70.68       70.00    
  50  -1000.0     -1000.0     -1000.0     -1000.0     -1000.0     -1000.0     -1000.0     -1000.0     -1000.0     -1000.0    
      -1000.0     -1000.0     -1000.0     -1000.0     -1000.0     -1000.0     -1000.0     -1000.0     -1000.0     -1000.0    
      -1000.0     -1000.0     -1000.0     -1000.0     -1000.0     -1000.0     -1000.0     -1000.0     -1000.0     -1000.0    
      -1000.0     -1000.0     -1000.0     -1000.0     -1000.0     -1000.0     -1000.0     -1000.0     -1000.0     -1000.0    
      -1000.0     -1000.0     -1000.0     -1000.0     -1000.0     -1000.0     -1000.0     -1000.0     -1000.0       70.00    

 HEAD WILL BE SAVED ON UNIT   51 AT END OF TIME STEP    1, STRESS PERIOD    1

 DRAWDOWN WILL BE SAVED ON UNIT   52 AT END OF TIME STEP    1, STRESS PERIOD    1
1
  VOLUMETRIC BUDGET FOR ENTIRE MODEL AT END OF TIME STEP    1, STRESS PERIOD   1
  ------------------------------------------------------------------------------

     CUMULATIVE VOLUMES      L**3       RATES FOR THIS TIME STEP      L**3/T
     ------------------                 ------------------------

           IN:                                      IN:
           ---                                      ---
             STORAGE =           0.0000               STORAGE =           0.0000
       CONSTANT HEAD =           0.0000         CONSTANT HEAD =           0.0000
               WELLS =         375.0000                 WELLS =         375.0000
       RIVER LEAKAGE =        3817.3459         RIVER LEAKAGE =        3817.3459
                  ET =           0.0000                    ET =           0.0000
            RECHARGE =       33199.9961              RECHARGE =       33199.9961

            TOTAL IN =       37392.3438              TOTAL IN =       37392.3438

          OUT:                                     OUT:
          ----                                     ----
             STORAGE =           0.0000               STORAGE =           0.0000
       CONSTANT HEAD =       12263.5342         CONSTANT HEAD =       12263.5342
               WELLS =        6000.0000                 WELLS =        6000.0000
       RIVER LEAKAGE =       17939.6953         RIVER LEAKAGE =       17939.6953
                  ET =        1189.0925                    ET =        1189.0925
            RECHARGE =           0.0000              RECHARGE =           0.0000

           TOTAL OUT =       37392.3242             TOTAL OUT =       37392.3242

            IN - OUT =       1.9531E-02              IN - OUT =       1.9531E-02

 PERCENT DISCREPANCY =           0.00     PERCENT DISCREPANCY =           0.00






         TIME SUMMARY AT END OF TIME STEP    1 IN STRESS PERIOD    1
                    SECONDS     MINUTES      HOURS       DAYS        YEARS
                    -----------------------------------------------------------
   TIME STEP LENGTH  86400.      1440.0      24.000      1.0000     2.73785E-03
 STRESS PERIOD TIME  86400.      1440.0      24.000      1.0000     2.73785E-03
         TOTAL TIME  86400.      1440.0      24.000      1.0000     2.73785E-03
1

 Run end date and time (yyyy/mm/dd hh:mm:ss): 2026/02/26  5:33:57
 Elapsed run time: 13.670 Seconds

