                                  MODFLOW-2005     
      U.S. GEOLOGICAL SURVEY MODULAR FINITE-DIFFERENCE GROUND-WATER FLOW MODEL
                            VERSION 1.12.00 2/3/2017

 LIST FILE: static_ensemble_3322223.list
                         UNIT    2

 OPENING static_ensemble_3322223.dis
 FILE TYPE:DIS   UNIT   11   STATUS:OLD    
 FORMAT:FORMATTED              ACCESS:SEQUENTIAL          

 OPENING static_ensemble_3322223.bas
 FILE TYPE:BAS6   UNIT   13   STATUS:OLD    
 FORMAT:FORMATTED              ACCESS:SEQUENTIAL          

 OPENING static_ensemble_3322223.lpf
 FILE TYPE:LPF   UNIT   15   STATUS:OLD    
 FORMAT:FORMATTED              ACCESS:SEQUENTIAL          

 OPENING static_ensemble_3322223.evt
 FILE TYPE:EVT   UNIT   22   STATUS:OLD    
 FORMAT:FORMATTED              ACCESS:SEQUENTIAL          

 OPENING static_ensemble_3322223.rch
 FILE TYPE:RCH   UNIT   19   STATUS:OLD    
 FORMAT:FORMATTED              ACCESS:SEQUENTIAL          

 OPENING static_ensemble_3322223.riv
 FILE TYPE:RIV   UNIT   18   STATUS:OLD    
 FORMAT:FORMATTED              ACCESS:SEQUENTIAL          

 OPENING static_ensemble_3322223.wel
 FILE TYPE:WEL   UNIT   20   STATUS:OLD    
 FORMAT:FORMATTED              ACCESS:SEQUENTIAL          

 OPENING static_ensemble_3322223.oc
 FILE TYPE:OC   UNIT   14   STATUS:OLD    
 FORMAT:FORMATTED              ACCESS:SEQUENTIAL          

 OPENING static_ensemble_3322223.pcg
 FILE TYPE:PCG   UNIT   27   STATUS:OLD    
 FORMAT:FORMATTED              ACCESS:SEQUENTIAL          

 OPENING static_ensemble_3322223.cbc
 FILE TYPE:DATA(BINARY)   UNIT   53   STATUS:REPLACE
 FORMAT:UNFORMATTED            ACCESS:STREAM              

 OPENING static_ensemble_3322223.hds
 FILE TYPE:DATA(BINARY)   UNIT   51   STATUS:REPLACE
 FORMAT:UNFORMATTED            ACCESS:STREAM              

 OPENING static_ensemble_3322223.ddn
 FILE TYPE:DATA(BINARY)   UNIT   52   STATUS:REPLACE
 FORMAT:UNFORMATTED            ACCESS:STREAM              

 BAS -- BASIC PACKAGE, VERSION 7, 5/2/2005 INPUT READ FROM UNIT   13
 
 MODFLOW was compiled using mixed precision
 Precision of REAL variables:           6
 Precision of DOUBLE PRECISION variables:          15

 DISCRETIZATION INPUT DATA READ FROM UNIT   11
 # DIS package for MODFLOW-2005 generated by Flopy 3.9.5
    3 LAYERS        50 ROWS        50 COLUMNS
    1 STRESS PERIOD(S) IN SIMULATION
 MODEL TIME UNIT IS DAYS
 MODEL LENGTH UNIT IS METERS
  Confining bed flag for each layer:
   0   0   0

                     DELR =   1000.00    

                     DELC =   1000.00    



           TOP ELEVATION OF LAYER 1
 READING ON UNIT   11 WITH FORMAT: (50E15.6)           



             MODEL LAYER BOTTOM EL. FOR LAYER   1
 READING ON UNIT   11 WITH FORMAT: (50E15.6)           



             MODEL LAYER BOTTOM EL. FOR LAYER   2
 READING ON UNIT   11 WITH FORMAT: (50E15.6)           



             MODEL LAYER BOTTOM EL. FOR LAYER   3
 READING ON UNIT   11 WITH FORMAT: (50E15.6)           


 STRESS PERIOD     LENGTH       TIME STEPS     MULTIPLIER FOR DELT    SS FLAG
 ----------------------------------------------------------------------------
        1         1.000000          1                    1.000         SS

 STEADY-STATE SIMULATION



 
 # BAS6 package for MODFLOW-2005 generated by Flopy 3.9.5                        
 THE FREE FORMAT OPTION HAS BEEN SELECTED



                     BOUNDARY ARRAY FOR LAYER   1
 READING ON UNIT   13 WITH FORMAT: (50I10)             



                     BOUNDARY ARRAY FOR LAYER   2
 READING ON UNIT   13 WITH FORMAT: (50I10)             



                     BOUNDARY ARRAY FOR LAYER   3
 READING ON UNIT   13 WITH FORMAT: (50I10)             

 AQUIFER HEAD WILL BE SET TO  -999.99     AT ALL NO-FLOW NODES (IBOUND=0).



                       INITIAL HEAD FOR LAYER   1
 READING ON UNIT   13 WITH FORMAT: (50E15.6)           



                       INITIAL HEAD FOR LAYER   2
 READING ON UNIT   13 WITH FORMAT: (50E15.6)           



                       INITIAL HEAD FOR LAYER   3
 READING ON UNIT   13 WITH FORMAT: (50E15.6)           
 # OC package for MODFLOW-2005 generated by Flopy 3.9.5

 OUTPUT CONTROL IS SPECIFIED ONLY AT TIME STEPS FOR WHICH OUTPUT IS DESIRED
 COMPACT CELL-BY-CELL BUDGET FILES WILL BE WRITTEN
 AUXILIARY DATA WILL BE SAVED IN CELL-BY-CELL BUDGET FILES
 HEAD PRINT FORMAT CODE IS   0    DRAWDOWN PRINT FORMAT CODE IS   0
 HEADS WILL BE SAVED ON UNIT   51    DRAWDOWNS WILL BE SAVED ON UNIT   52

 LPF -- LAYER-PROPERTY FLOW PACKAGE, VERSION 7, 5/2/2005
         INPUT READ FROM UNIT   15
 # LPF package for MODFLOW-2005 generated by Flopy 3.9.5
 CELL-BY-CELL FLOWS WILL BE SAVED ON UNIT   53
 HEAD AT CELLS THAT CONVERT TO DRY= -1.00000E+30
 No named parameters
 STORAGECOEFFICIENT OPTION:
 Read storage coefficient rather than specific storage

   LAYER FLAGS:
 LAYER       LAYTYP        LAYAVG         CHANI        LAYVKA        LAYWET
 ---------------------------------------------------------------------------
    1             1             0     1.000E+00             0             0
    2             1             0     1.000E+00             0             0
    3             1             0     1.000E+00             0             0

   INTERPRETATION OF LAYER FLAGS:
                        INTERBLOCK     HORIZONTAL    DATA IN
         LAYER TYPE   TRANSMISSIVITY   ANISOTROPY   ARRAY VKA   WETTABILITY
 LAYER      (LAYTYP)      (LAYAVG)       (CHANI)      (LAYVKA)      (LAYWET)
 ---------------------------------------------------------------------------
    1   CONVERTIBLE      HARMONIC     1.000E+00    VERTICAL K  NON-WETTABLE
    2   CONVERTIBLE      HARMONIC     1.000E+00    VERTICAL K  NON-WETTABLE
    3   CONVERTIBLE      HARMONIC     1.000E+00    VERTICAL K  NON-WETTABLE

 WETTING CAPABILITY IS NOT ACTIVE IN ANY LAYER



              HYD. COND. ALONG ROWS FOR LAYER   1
 READING ON UNIT   15 WITH FORMAT: (50E15.6)           



                VERTICAL HYD. COND. FOR LAYER   1
 READING ON UNIT   15 WITH FORMAT: (50E15.6)           



              HYD. COND. ALONG ROWS FOR LAYER   2
 READING ON UNIT   15 WITH FORMAT: (50E15.6)           



                VERTICAL HYD. COND. FOR LAYER   2
 READING ON UNIT   15 WITH FORMAT: (50E15.6)           



              HYD. COND. ALONG ROWS FOR LAYER   3
 READING ON UNIT   15 WITH FORMAT: (50E15.6)           



                VERTICAL HYD. COND. FOR LAYER   3
 READING ON UNIT   15 WITH FORMAT: (50E15.6)           

 WEL -- WELL PACKAGE, VERSION 7, 5/2/2005 INPUT READ FROM UNIT   20
 # WEL package for MODFLOW-2005 generated by Flopy 3.9.5
 No named parameters
 MAXIMUM OF      3 ACTIVE WELLS AT ONE TIME


     0 Well parameters

 RIV -- RIVER PACKAGE, VERSION 7, 5/2/2005 INPUT READ FROM UNIT   18
 # RIV package for MODFLOW-2005 generated by Flopy 3.9.5
 No named parameters
 MAXIMUM OF     49 ACTIVE RIVER REACHES AT ONE TIME
 CELL-BY-CELL FLOWS WILL BE SAVED ON UNIT   53


     0 River parameters

 EVT -- EVAPOTRANSPIRATION PACKAGE, VERSION 7, 5/2/2005
         INPUT READ FROM UNIT   22
 # EVT package for MODFLOW-2005 generated by Flopy 3.9.5
 No named parameters
 OPTION 3 -- EVAPOTRANSPIRATION FROM HIGHEST ACTIVE NODE IN EACH VERTICAL COLUMN
 CELL-BY-CELL FLOWS WILL BE SAVED ON UNIT   53


     0 Evapotranspiration parameters

 RCH -- RECHARGE PACKAGE, VERSION 7, 5/2/2005 INPUT READ FROM UNIT   19
 # RCH package for MODFLOW-2005 generated by Flopy 3.9.5
 No named parameters
 OPTION 3 -- RECHARGE TO HIGHEST ACTIVE NODE IN EACH VERTICAL COLUMN
 CELL-BY-CELL FLOWS WILL BE SAVED ON UNIT   53


     0 Recharge parameters

 PCG -- CONJUGATE-GRADIENT SOLUTION PACKAGE, VERSION 7, 5/2/2005
 # PCG package for MODFLOW-2005 generated by Flopy 3.9.5
 MAXIMUM OF   5000 CALLS OF SOLUTION ROUTINE
 MAXIMUM OF    500 INTERNAL ITERATIONS PER CALL TO SOLUTION ROUTINE
 MATRIX PRECONDITIONING TYPE :    1



                                    SOLUTION BY THE CONJUGATE-GRADIENT METHOD
                                   -------------------------------------------
                    MAXIMUM NUMBER OF CALLS TO PCG ROUTINE =     5000
                        MAXIMUM ITERATIONS PER CALL TO PCG =      500
                               MATRIX PRECONDITIONING TYPE =        1
        RELAXATION FACTOR (ONLY USED WITH PRECOND. TYPE 1) =    0.97000E+00
 PARAMETER OF POLYNOMIAL PRECOND. = 2 (2) OR IS CALCULATED :        0
                         HEAD CHANGE CRITERION FOR CLOSURE =    0.10000E-04
                     RESIDUAL CHANGE CRITERION FOR CLOSURE =    0.10000E-04
            PCG HEAD AND RESIDUAL CHANGE PRINTOUT INTERVAL =      999
     PRINTING FROM SOLVER IS LIMITED(1) OR SUPPRESSED (>1) =        3
                            STEADY-STATE DAMPING PARAMETER =    0.10000E-01
                               TRANSIENT DAMPING PARAMETER =    0.10000E-01
1
                            STRESS PERIOD NO.    1, LENGTH =   1.000000    
                            -----------------------------------------------

                              NUMBER OF TIME STEPS =     1

                               MULTIPLIER FOR DELT =     1.000

                            INITIAL TIME STEP SIZE =   1.000000    

 WELL NO.  LAYER   ROW   COL   STRESS RATE         
 --------------------------------------------------
      1      3     22     39      -1500.    
      2      1     13     15      -4500.    
      3      1     25     26       375.0    

      3 WELLS

 REACH NO.  LAYER   ROW   COL     STAGE      CONDUCTANCE     BOTTOM EL.         
 -------------------------------------------------------------------------------
      1      1     25      2       100.5          0.1000E+06       98.00    
      2      1     25      3       99.50          0.1000E+06       97.00    
      3      1     25      4       98.50          0.1000E+06       96.00    
      4      1     25      5       97.50          0.1000E+06       95.00    
      5      1     25      6       96.50          0.1000E+06       94.00    
      6      1     25      7       95.50          0.1000E+06       93.00    
      7      1     25      8       94.50          0.1000E+06       92.00    
      8      1     25      9       93.50          0.1000E+06       91.00    
      9      1     25     10       92.50          0.1000E+06       90.00    
     10      1     25     11       91.50          0.1000E+06       89.00    
     11      1     25     12       90.50          0.1000E+06       88.00    
     12      1     25     13       89.50          0.1000E+06       87.00    
     13      1     25     14       88.50          0.1000E+06       86.00    
     14      1     25     15       87.50          0.1000E+06       85.00    
     15      1     25     16       86.50          0.1000E+06       84.00    
     16      1     25     17       85.50          0.1000E+06       83.00    
     17      1     25     18       84.50          0.1000E+06       82.00    
     18      1     25     19       83.50          0.1000E+06       81.00    
     19      1     25     20       82.50          0.1000E+06       80.00    
     20      1     25     21       81.50          0.1000E+06       79.00    
     21      1     25     22       80.50          0.1000E+06       78.00    
     22      1     25     23       79.50          0.1000E+06       77.00    
     23      1     25     24       78.50          0.1000E+06       76.00    
     24      1     25     25       77.50          0.1000E+06       75.00    
     25      1     25     26       77.40          0.1000E+06       74.90    
     26      1     25     27       77.30          0.1000E+06       74.80    
     27      1     25     28       77.20          0.1000E+06       74.70    
     28      1     25     29       77.10          0.1000E+06       74.60    
     29      1     25     30       77.00          0.1000E+06       74.50    
     30      1     25     31       76.90          0.1000E+06       74.40    
     31      1     25     32       76.80          0.1000E+06       74.30    
     32      1     25     33       76.70          0.1000E+06       74.20    
     33      1     25     34       76.60          0.1000E+06       74.10    
     34      1     25     35       76.50          0.1000E+06       74.00    
     35      1     25     36       76.40          0.1000E+06       73.90    
     36      1     25     37       76.30          0.1000E+06       73.80    
     37      1     25     38       76.20          0.1000E+06       73.70    
     38      1     25     39       76.10          0.1000E+06       73.60    
     39      1     25     40       76.00          0.1000E+06       73.50    
     40      1     25     41       75.90          0.1000E+06       73.40    
     41      1     25     42       75.80          0.1000E+06       73.30    
     42      1     25     43       75.70          0.1000E+06       73.20    
     43      1     25     44       75.60          0.1000E+06       73.10    
     44      1     25     45       75.50          0.1000E+06       73.00    
     45      1     25     46       75.40          0.1000E+06       72.90    
     46      1     25     47       75.30          0.1000E+06       72.80    
     47      1     25     48       75.20          0.1000E+06       72.70    
     48      1     25     49       75.10          0.1000E+06       72.60    
     49      1     25     50       75.00          0.1000E+06       72.50    

     49 RIVER REACHES



                         ET SURFACE
 READING ON UNIT   22 WITH FORMAT: (50E15.6)           



            EVAPOTRANSPIRATION RATE
 READING ON UNIT   22 WITH FORMAT: (50E15.6)           

         EXTINCTION DEPTH =   10.0000    



                           RECHARGE
 READING ON UNIT   19 WITH FORMAT: (50E15.6)           
 
 SOLVING FOR HEAD 

 OUTPUT CONTROL FOR STRESS PERIOD    1   TIME STEP    1
    SAVE HEAD FOR ALL LAYERS
    SAVE DRAWDOWN FOR ALL LAYERS
    SAVE BUDGET
    PRINT HEAD FOR ALL LAYERS
    PRINT BUDGET
 UBDSV2 SAVING "   CONSTANT HEAD" ON UNIT  53 AT TIME STEP  1, STRESS PERIOD   1
 UBDSV1 SAVING "FLOW RIGHT FACE " ON UNIT  53 AT TIME STEP  1, STRESS PERIOD   1
 UBDSV1 SAVING "FLOW FRONT FACE " ON UNIT  53 AT TIME STEP  1, STRESS PERIOD   1
 UBDSV1 SAVING "FLOW LOWER FACE " ON UNIT  53 AT TIME STEP  1, STRESS PERIOD   1
 UBDSV4 SAVING "   RIVER LEAKAGE" ON UNIT  53 AT TIME STEP  1, STRESS PERIOD   1
 UBDSV3 SAVING "              ET" ON UNIT  53 AT TIME STEP  1, STRESS PERIOD   1
 UBDSV3 SAVING "        RECHARGE" ON UNIT  53 AT TIME STEP  1, STRESS PERIOD   1
1
              HEAD IN LAYER   1 AT END OF TIME STEP   1 IN STRESS PERIOD    1
  ---------------------------------------------------------------------------

            1           2           3           4           5           6           7           8           9          10
           11          12          13          14          15          16          17          18          19          20
           21          22          23          24          25          26          27          28          29          30
           31          32          33          34          35          36          37          38          39          40
           41          42          43          44          45          46          47          48          49          50
 ........................................................................................................................
   1  -1000.0     -1000.0     -1000.0     -1000.0     -1000.0     -1000.0     -1000.0     -1000.0     -1000.0     -1000.0    
      -1000.0     -1000.0     -1000.0     -1000.0     -1000.0     -1000.0     -1000.0     -1000.0     -1000.0     -1000.0    
      -1000.0     -1000.0     -1000.0     -1000.0     -1000.0     -1000.0     -1000.0     -1000.0     -1000.0     -1000.0    
      -1000.0     -1000.0     -1000.0     -1000.0     -1000.0     -1000.0     -1000.0     -1000.0     -1000.0     -1000.0    
      -1000.0     -1000.0     -1000.0     -1000.0     -1000.0     -1000.0     -1000.0     -1000.0     -1000.0       70.00    
   2  -1000.0     -1000.0     -1000.0     -1000.0     -1000.0       86.75       86.63       86.46       86.25       86.01    
        85.81       85.57       85.29       85.00       84.68       84.34       83.98       83.62       83.25       82.86    
        82.48       82.08       81.68       81.28       80.87       80.46       80.05       79.64       79.23       78.81    
        78.40       77.98       77.56       77.14       76.72       76.30       75.87       75.44       75.01       74.58    
        74.14       73.70       73.25       72.80       72.34       71.88       71.42       70.95       70.48       70.00    
   3  -1000.0     -1000.0     -1000.0     -1000.0       86.99       86.85       86.69       86.50       86.28       86.07    
        85.85       85.59       85.32       85.01       84.69       84.35       83.99       83.63       83.25       82.87    
        82.48       82.08       81.68       81.28       80.87       80.46       80.05       79.64       79.23       78.81    
        78.39       77.98       77.56       77.14       76.72       76.30       75.87       75.44       75.01       74.58    
        74.14       73.70       73.25       72.80       72.34       71.88       71.42       70.95       70.48       70.00    
   4  -1000.0     -1000.0     -1000.0       87.28       87.13       86.96       86.78       86.57       86.37       86.15    
        85.91       85.64       85.36       85.05       84.72       84.37       84.01       83.64       83.27       82.88    
        82.49       82.09       81.69       81.28       80.87       80.46       80.05       79.64       79.22       78.81    
        78.39       77.98       77.56       77.14       76.72       76.30       75.87       75.45       75.02       74.58    
        74.14       73.70       73.25       72.80       72.35       71.89       71.42       70.95       70.48       70.00    
   5  -1000.0     -1000.0       87.57       87.43       87.27       87.09       86.90       86.70       86.48       86.24    
        85.99       85.71       85.41       85.10       84.76       84.41       84.04       83.67       83.28       82.89    
        82.50       82.10       81.69       81.28       80.87       80.46       80.05       79.63       79.22       78.80    
        78.39       77.97       77.56       77.14       76.72       76.30       75.87       75.45       75.02       74.59    
        74.15       73.71       73.26       72.81       72.35       71.89       71.42       70.95       70.48       70.00    
   6  -1000.0       87.82       87.71       87.58       87.42       87.24       87.04       86.83       86.60       86.36    
        86.09       85.80       85.49       85.16       84.81       84.45       84.08       83.70       83.31       82.91    
        82.51       82.11       81.70       81.29       80.87       80.46       80.04       79.63       79.21       78.80    
        78.38       77.97       77.55       77.14       76.72       76.30       75.88       75.45       75.02       74.59    
        74.15       73.71       73.27       72.81       72.36       71.90       71.43       70.96       70.48       70.00    
   7  -1000.0       87.93       87.86       87.74       87.59       87.41       87.21       86.99       86.74       86.48    
        86.20       85.90       85.57       85.23       84.87       84.50       84.12       83.73       83.34       82.94    
        82.53       82.12       81.70       81.29       80.87       80.46       80.04       79.62       79.21       78.79    
        78.38       77.96       77.55       77.13       76.72       76.30       75.88       75.46       75.03       74.60    
        74.16       73.72       73.28       72.82       72.37       71.90       71.43       70.96       70.48       70.00    
   8  -1000.0       88.10       88.04       87.93       87.77       87.59       87.38       87.15       86.90       86.63    
        86.33       86.01       85.67       85.32       84.95       84.56       84.17       83.78       83.37       82.96    
        82.55       82.13       81.71       81.29       80.87       80.45       80.03       79.61       79.20       78.78    
        78.37       77.95       77.54       77.13       76.71       76.30       75.88       75.46       75.04       74.61    
        74.17       73.73       73.29       72.84       72.38       71.91       71.44       70.97       70.49       70.00    
   9  -1000.0       88.31       88.26       88.13       87.98       87.79       87.58       87.34       87.08       86.79    
        86.47       86.14       85.78       85.41       85.03       84.63       84.23       83.82       83.41       82.99    
        82.57       82.14       81.72       81.29       80.86       80.44       80.02       79.60       79.18       78.77    
        78.35       77.94       77.53       77.12       76.71       76.30       75.88       75.47       75.05       74.62    
        74.19       73.75       73.30       72.85       72.39       71.93       71.45       70.97       70.49       70.00    
  10  -1000.0       88.56       88.48       88.36       88.20       88.02       87.80       87.55       87.27       86.97    
        86.64       86.28       85.91       85.51       85.11       84.70       84.29       83.87       83.45       83.02    
        82.59       82.15       81.72       81.29       80.86       80.43       80.00       79.58       79.16       78.75    
        78.34       77.93       77.52       77.11       76.71       76.30       75.89       75.48       75.06       74.63    
        74.21       73.77       73.33       72.87       72.41       71.94       71.47       70.98       70.49       70.00    
  11  -1000.0       88.79       88.72       88.61       88.46       88.27       88.04       87.78       87.49       87.17    
        86.82       86.44       86.04       85.62       85.19       84.77       84.35       83.93       83.49       83.05    
        82.61       82.16       81.72       81.28       80.84       80.41       79.98       79.56       79.14       78.72    
        78.32       77.91       77.51       77.10       76.70       76.30       75.89       75.49       75.07       74.65    
        74.23       73.79       73.35       72.90       72.44       71.97       71.49       71.00       70.50       70.00    
  12  -1000.0       89.07       89.01       88.90       88.75       88.55       88.31       88.04       87.73       87.39    
        87.02       86.62       86.19       85.73       85.26       84.85       84.42       83.98       83.54       83.08    
        82.63       82.17       81.72       81.27       80.82       80.38       79.95       79.53       79.11       78.70    
        78.29       77.89       77.49       77.09       76.70       76.30       75.90       75.50       75.09       74.68    
        74.26       73.82       73.38       72.93       72.47       71.99       71.51       71.01       70.51       70.00    
  13  -1000.0       89.40       89.35       89.24       89.08       88.87       88.62       88.33       88.00       87.64    
        87.24       86.82       86.36       85.86       85.27       84.92       84.50       84.05       83.58       83.11    
        82.64       82.17       81.70       81.24       80.79       80.35       79.91       79.48       79.07       78.66    
        78.26       77.86       77.47       77.08       76.69       76.30       75.91       75.51       75.11       74.71    
        74.29       73.86       73.42       72.97       72.51       72.03       71.54       71.03       70.52       70.00    
  14  -1000.0       89.79       89.73       89.61       89.44       89.22       88.96       88.65       88.30       87.91    
        87.50       87.05       86.57       86.06       85.54       85.08       84.61       84.13       83.64       83.14    
        82.65       82.17       81.68       81.21       80.75       80.30       79.86       79.43       79.02       78.61    
        78.21       77.82       77.44       77.06       76.68       76.30       75.92       75.53       75.14       74.74    
        74.33       73.91       73.48       73.03       72.56       72.07       71.57       71.06       70.53       70.00    
  15  -1000.0       90.23       90.17       90.04       89.86       89.62       89.33       89.00       88.63       88.21    
        87.77       87.30       86.80       86.28       85.75       85.24       84.72       84.21       83.69       83.17    
        82.66       82.15       81.65       81.17       80.70       80.24       79.80       79.37       78.96       78.55    
        78.16       77.78       77.41       77.04       76.67       76.30       75.93       75.56       75.18       74.79    
        74.39       73.97       73.54       73.09       72.62       72.13       71.62       71.10       70.55       70.00    
  16  -1000.0       90.73       90.66       90.52       90.32       90.06       89.75       89.39       88.98       88.54    
        88.07       87.57       87.04       86.50       85.94       85.39       84.84       84.29       83.74       83.19    
        82.65       82.12       81.61       81.11       80.62       80.16       79.72       79.29       78.88       78.49    
        78.10       77.73       77.37       77.01       76.66       76.30       75.94       75.58       75.22       74.84    
        74.45       74.04       73.62       73.17       72.70       72.21       71.69       71.14       70.58       70.00    
  17  -1000.0       91.29       91.21       91.06       90.84       90.55       90.21       89.81       89.37       88.90    
        88.39       87.85       87.29       86.72       86.13       85.54       84.95       84.36       83.78       83.20    
        82.63       82.08       81.54       81.03       80.53       80.06       79.61       79.19       78.79       78.40    
        78.03       77.67       77.32       76.98       76.64       76.30       75.96       75.62       75.26       74.90    
        74.53       74.13       73.72       73.28       72.81       72.30       71.77       71.20       70.61       70.00    
  18  -1000.0       91.92       91.83       91.66       91.41       91.09       90.71       90.27       89.79       89.27    
        88.72       88.15       87.55       86.94       86.31       85.68       85.06       84.43       83.81       83.20    
        82.60       82.02       81.45       80.92       80.41       79.93       79.49       79.07       78.67       78.30    
        77.95       77.60       77.27       76.95       76.62       76.30       75.98       75.66       75.32       74.98    
        74.62       74.24       73.84       73.41       72.94       72.43       71.88       71.28       70.65       70.00    
  19  -1000.0       92.63       92.53       92.33       92.04       91.68       91.25       90.77       90.24       89.68    
        89.08       88.46       87.82       87.16       86.50       85.82       85.15       84.49       83.83       83.18    
        82.54       81.92       81.34       80.78       80.26       79.78       79.33       78.92       78.54       78.18    
        77.84       77.52       77.21       76.91       76.61       76.31       76.01       75.70       75.39       75.07    
        74.73       74.37       73.99       73.57       73.11       72.59       72.02       71.40       70.72       70.00    
  20  -1000.0       93.43       93.31       93.07       92.74       92.33       91.84       91.30       90.72       90.10    
        89.45       88.78       88.09       87.39       86.67       85.96       85.24       84.53       83.83       83.13    
        82.46       81.80       81.18       80.60       80.07       79.58       79.14       78.74       78.38       78.04    
        77.73       77.43       77.14       76.86       76.59       76.31       76.03       75.75       75.46       75.17    
        74.86       74.53       74.17       73.77       73.32       72.81       72.22       71.55       70.80       70.00    
  21  -1000.0       94.35       94.20       93.91       93.51       93.03       92.48       91.87       91.22       90.54    
        89.83       89.11       88.36       87.61       86.85       86.08       85.32       84.56       83.81       83.07    
        82.34       81.64       80.98       80.37       79.82       79.33       78.90       78.53       78.19       77.88    
        77.60       77.33       77.07       76.82       76.57       76.32       76.07       75.81       75.54       75.28    
        75.01       74.72       74.39       74.02       73.59       73.09       72.50       71.78       70.94       70.00    
  22  -1000.0       95.40       95.20       94.84       94.36       93.79       93.15       92.47       91.75       91.00    
        90.23       89.44       88.64       87.83       87.02       86.20       85.38       84.57       83.77       82.98    
        82.19       81.44       80.73       80.08       79.50       79.02       78.62       78.27       77.97       77.70    
        77.45       77.21       76.98       76.76       76.55       76.33       76.11       75.87       75.60       75.42    
        75.19       74.94       74.65       74.32       73.94       73.47       72.89       72.13       71.17       70.00    
  23  -1000.0       96.63       96.35       95.88       95.28       94.60       93.87       93.09       92.29       91.47    
        90.63       89.78       88.92       88.05       87.18       86.30       85.43       84.56       83.70       82.85    
        82.01       81.19       80.42       79.70       79.10       78.63       78.27       77.97       77.72       77.49    
        77.28       77.09       76.90       76.71       76.53       76.35       76.16       75.97       75.77       75.59    
        75.40       75.19       74.95       74.68       74.36       73.96       73.43       72.68       71.58       70.00    
  24  -1000.0       98.13       97.68       97.03       96.27       95.46       94.61       93.73       92.84       91.94    
        91.03       90.11       89.19       88.26       87.33       86.40       85.47       84.54       83.62       82.70    
        81.79       80.89       80.03       79.22       78.54       78.13       77.85       77.63       77.44       77.27    
        77.11       76.95       76.81       76.66       76.51       76.37       76.22       76.07       75.92       75.78    
        75.63       75.46       75.29       75.09       74.86       74.58       74.19       73.57       72.43       70.00    
  25  -1000.0       100.0       99.19       98.26       97.30       96.33       95.36       94.38       93.40       92.41    
        91.43       90.44       89.45       88.47       87.48       86.49       85.50       84.51       83.52       82.53    
        81.54       80.56       79.57       78.60       77.69       77.50       77.37       77.26       77.15       77.04    
        76.93       76.82       76.71       76.61       76.50       76.40       76.29       76.18       76.08       75.97    
        75.86       75.76       75.65       75.53       75.42       75.29       75.15       74.97       74.51       70.00    
  26  -1000.0       98.13       97.68       97.03       96.27       95.46       94.61       93.74       92.85       91.95    
        91.04       90.12       89.19       88.27       87.34       86.41       85.47       84.55       83.62       82.70    
        81.79       80.90       80.03       79.23       78.54       78.13       77.85       77.63       77.44       77.27    
        77.11       76.96       76.81       76.66       76.52       76.38       76.24       76.09       75.94       75.79    
        75.64       75.47       75.29       75.09       74.86       74.57       74.18       73.57       72.43       70.00    
  27  -1000.0       96.63       96.35       95.88       95.28       94.60       93.87       93.10       92.30       91.47    
        90.64       89.79       88.93       88.06       87.19       86.31       85.44       84.57       83.71       82.85    
        82.02       81.20       80.43       79.72       79.11       78.64       78.28       77.98       77.73       77.50    
        77.29       77.09       76.91       76.72       76.54       76.36       76.18       76.00       75.82       75.62    
        75.42       75.20       74.96       74.69       74.36       73.96       73.43       72.68       71.58       70.00    
  28  -1000.0       95.40       95.20       94.84       94.36       93.79       93.16       92.48       91.76       91.01    
        90.24       89.46       88.66       87.85       87.04       86.22       85.40       84.58       83.78       82.98    
        82.21       81.46       80.75       80.10       79.52       79.04       78.63       78.28       77.98       77.71    
        77.46       77.22       77.00       76.78       76.56       76.35       76.14       75.92       75.70       75.47    
        75.22       74.96       74.66       74.33       73.94       73.47       72.89       72.13       71.17       70.00    
  29  -1000.0       94.35       94.20       93.91       93.52       93.03       92.48       91.88       91.24       90.56    
        89.86       89.13       88.39       87.64       86.88       86.11       85.34       84.58       83.83       83.08    
        82.36       81.67       81.01       80.40       79.84       79.35       78.92       78.54       78.20       77.89    
        77.61       77.34       77.08       76.83       76.59       76.34       76.10       75.85       75.59       75.33    
        75.04       74.74       74.40       74.03       73.60       73.10       72.50       71.78       70.94       70.00    
  30  -1000.0       93.43       93.31       93.08       92.75       92.33       91.85       91.32       90.74       90.12    
        89.48       88.81       88.12       87.42       86.71       85.99       85.28       84.56       83.85       83.16    
        82.48       81.83       81.21       80.63       80.09       79.60       79.16       78.76       78.40       78.06    
        77.74       77.45       77.16       76.88       76.61       76.34       76.06       75.79       75.50       75.20    
        74.89       74.55       74.18       73.78       73.33       72.81       72.22       71.55       70.81       70.00    
  31  -1000.0       92.63       92.53       92.33       92.05       91.69       91.26       90.79       90.26       89.70    
        89.11       88.50       87.86       87.21       86.55       85.87       85.20       84.53       83.87       83.21    
        82.58       81.96       81.37       80.81       80.29       79.80       79.35       78.94       78.56       78.20    
        77.86       77.54       77.23       76.93       76.63       76.33       76.03       75.73       75.42       75.09    
        74.75       74.39       74.00       73.58       73.11       72.60       72.03       71.40       70.72       70.00    
  32  -1000.0       91.92       91.83       91.66       91.41       91.10       90.72       90.29       89.82       89.31    
        88.77       88.20       87.61       87.00       86.38       85.75       85.12       84.49       83.86       83.24    
        82.64       82.06       81.49       80.95       80.44       79.96       79.51       79.09       78.69       78.32    
        77.96       77.62       77.29       76.96       76.64       76.33       76.01       75.68       75.35       75.00    
        74.64       74.26       73.85       73.42       72.94       72.43       71.88       71.29       70.65       70.00    
  33  -1000.0       91.28       91.21       91.06       90.84       90.56       90.22       89.83       89.40       88.94    
        88.44       87.91       87.36       86.80       86.22       85.62       85.03       84.43       83.84       83.26    
        82.68       82.13       81.58       81.06       80.57       80.09       79.64       79.21       78.81       78.42    
        78.05       77.69       77.34       77.00       76.66       76.32       75.98       75.64       75.29       74.92    
        74.54       74.15       73.73       73.29       72.81       72.31       71.77       71.20       70.61       70.00    
  34  -1000.0       90.72       90.65       90.52       90.32       90.07       89.76       89.41       89.02       88.59    
        88.13       87.64       87.13       86.60       86.05       85.50       84.94       84.37       83.81       83.26    
        82.71       82.17       81.65       81.15       80.66       80.19       79.74       79.31       78.90       78.51    
        78.12       77.75       77.39       77.03       76.67       76.32       75.96       75.60       75.23       74.86    
        74.46       74.06       73.63       73.18       72.71       72.21       71.69       71.14       70.58       70.00    
  35  -1000.0       90.21       90.15       90.03       89.86       89.63       89.35       89.02       88.66       88.26    
        87.84       87.38       86.90       86.41       85.90       85.37       84.84       84.31       83.77       83.24    
        82.72       82.21       81.70       81.21       80.73       80.27       79.83       79.40       78.98       78.58    
        78.18       77.80       77.43       77.06       76.69       76.32       75.95       75.57       75.19       74.80    
        74.40       73.98       73.55       73.10       72.63       72.14       71.63       71.10       70.55       70.00    
  36  -1000.0       89.77       89.71       89.60       89.44       89.22       88.97       88.67       88.33       87.96    
        87.57       87.14       86.69       86.23       85.74       85.25       84.74       84.24       83.73       83.22    
        82.72       82.22       81.73       81.26       80.79       80.33       79.89       79.46       79.04       78.63    
        78.24       77.84       77.46       77.08       76.70       76.32       75.94       75.55       75.16       74.76    
        74.35       73.92       73.49       73.03       72.57       72.08       71.58       71.06       70.54       70.00    
  37  -1000.0       89.37       89.32       89.21       89.06       88.86       88.62       88.35       88.03       87.69    
        87.31       86.92       86.49       86.05       85.60       85.13       84.65       84.16       83.68       83.19    
        82.71       82.23       81.75       81.29       80.83       80.38       79.94       79.51       79.09       78.68    
        78.28       77.88       77.49       77.10       76.71       76.32       75.93       75.53       75.13       74.72    
        74.30       73.87       73.43       72.98       72.52       72.03       71.54       71.04       70.52       70.00    
  38  -1000.0       89.02       88.97       88.87       88.72       88.54       88.31       88.05       87.76       87.43    
        87.08       86.71       86.31       85.89       85.46       85.01       84.55       84.09       83.63       83.16    
        82.69       82.23       81.76       81.31       80.86       80.42       79.98       79.55       79.13       78.72    
        78.31       77.91       77.51       77.11       76.71       76.32       75.92       75.51       75.11       74.69    
        74.27       73.84       73.39       72.94       72.48       72.00       71.51       71.02       70.51       70.00    
  39  -1000.0       88.72       88.66       88.57       88.43       88.25       88.03       87.79       87.51       87.20    
        86.87       86.52       86.14       85.74       85.33       84.90       84.46       84.02       83.57       83.12    
        82.67       82.22       81.77       81.32       80.88       80.44       80.01       79.58       79.16       78.75    
        78.34       77.93       77.53       77.12       76.72       76.32       75.91       75.50       75.09       74.67    
        74.24       73.80       73.36       72.91       72.44       71.97       71.49       71.00       70.50       70.00    
  40  -1000.0       88.46       88.40       88.30       88.16       87.99       87.78       87.55       87.28       86.99    
        86.68       86.34       85.98       85.60       85.21       84.80       84.38       83.95       83.52       83.08    
        82.64       82.20       81.76       81.33       80.89       80.46       80.03       79.61       79.19       78.77    
        78.36       77.95       77.54       77.13       76.72       76.32       75.90       75.49       75.07       74.65    
        74.22       73.78       73.33       72.88       72.42       71.95       71.47       70.99       70.50       70.00    
  41  -1000.0       88.26       88.18       88.07       87.93       87.76       87.56       87.33       87.08       86.80    
        86.50       86.18       85.84       85.48       85.10       84.70       84.30       83.89       83.47       83.04    
        82.62       82.19       81.76       81.33       80.90       80.47       80.05       79.62       79.21       78.79    
        78.37       77.96       77.55       77.14       76.73       76.31       75.90       75.48       75.06       74.63    
        74.20       73.76       73.31       72.86       72.40       71.93       71.46       70.98       70.49       70.00    
  42  -1000.0       88.03       87.98       87.86       87.72       87.55       87.35       87.14       86.89       86.63    
        86.34       86.03       85.71       85.36       85.00       84.62       84.22       83.83       83.42       83.01    
        82.59       82.17       81.75       81.32       80.90       80.48       80.06       79.64       79.22       78.80    
        78.39       77.97       77.56       77.15       76.73       76.31       75.90       75.47       75.05       74.62    
        74.18       73.74       73.30       72.84       72.38       71.92       71.45       70.97       70.49       70.00    
  43  -1000.0       87.83       87.78       87.68       87.53       87.36       87.17       86.96       86.73       86.48    
        86.20       85.91       85.59       85.26       84.90       84.54       84.16       83.77       83.37       82.97    
        82.56       82.15       81.73       81.32       80.90       80.48       80.06       79.65       79.23       78.81    
        78.40       77.98       77.57       77.15       76.73       76.31       75.89       75.47       75.04       74.61    
        74.17       73.73       73.28       72.83       72.37       71.91       71.44       70.96       70.48       70.00    
  44  -1000.0       87.68       87.61       87.50       87.36       87.19       87.01       86.80       86.58       86.34    
        86.07       85.79       85.49       85.16       84.82       84.47       84.10       83.72       83.33       82.94    
        82.54       82.13       81.72       81.31       80.90       80.48       80.07       79.65       79.24       78.82    
        78.40       77.99       77.57       77.15       76.73       76.31       75.89       75.46       75.03       74.60    
        74.16       73.72       73.27       72.82       72.36       71.90       71.43       70.96       70.48       70.00    
  45  -1000.0       87.58       87.47       87.35       87.20       87.04       86.86       86.66       86.45       86.22    
        85.96       85.69       85.40       85.09       84.76       84.41       84.05       83.68       83.30       82.91    
        82.52       82.12       81.71       81.30       80.89       80.48       80.07       79.66       79.24       78.82    
        78.41       77.99       77.57       77.16       76.73       76.31       75.89       75.46       75.03       74.59    
        74.16       73.71       73.26       72.81       72.35       71.89       71.43       70.95       70.48       70.00    
  46  -1000.0     -1000.0       87.35       87.21       87.06       86.90       86.72       86.53       86.33       86.11    
        85.87       85.61       85.32       85.02       84.70       84.36       84.01       83.64       83.27       82.89    
        82.50       82.10       81.70       81.30       80.89       80.48       80.07       79.66       79.24       78.83    
        78.41       78.00       77.58       77.16       76.74       76.31       75.89       75.46       75.03       74.59    
        74.15       73.71       73.26       72.81       72.35       71.89       71.42       70.95       70.48       70.00    
  47  -1000.0     -1000.0     -1000.0       87.08       86.93       86.78       86.61       86.42       86.23       86.02    
        85.79       85.54       85.27       84.97       84.66       84.32       83.97       83.62       83.25       82.87    
        82.48       82.09       81.69       81.29       80.89       80.48       80.07       79.66       79.25       78.83    
        78.41       78.00       77.58       77.16       76.74       76.31       75.88       75.46       75.02       74.59    
        74.15       73.70       73.25       72.80       72.35       71.88       71.42       70.95       70.48       70.00    
  48  -1000.0     -1000.0     -1000.0     -1000.0       86.81       86.68       86.53       86.35       86.14       85.94    
        85.73       85.49       85.23       84.94       84.63       84.30       83.95       83.60       83.23       82.86    
        82.47       82.08       81.69       81.29       80.89       80.48       80.07       79.66       79.25       78.83    
        78.42       78.00       77.58       77.16       76.74       76.31       75.88       75.45       75.02       74.58    
        74.14       73.70       73.25       72.80       72.34       71.88       71.42       70.95       70.48       70.00    
  49  -1000.0     -1000.0     -1000.0     -1000.0     -1000.0       86.58       86.47       86.31       86.11       85.88    
        85.69       85.46       85.20       84.92       84.61       84.28       83.94       83.59       83.22       82.85    
        82.47       82.08       81.69       81.29       80.88       80.48       80.07       79.66       79.25       78.83    
        78.42       78.00       77.58       77.16       76.74       76.31       75.88       75.45       75.02       74.58    
        74.14       73.70       73.25       72.80       72.34       71.88       71.42       70.95       70.48       70.00    
  50  -1000.0     -1000.0     -1000.0     -1000.0     -1000.0     -1000.0     -1000.0     -1000.0     -1000.0     -1000.0    
      -1000.0     -1000.0     -1000.0     -1000.0     -1000.0     -1000.0     -1000.0     -1000.0     -1000.0     -1000.0    
      -1000.0     -1000.0     -1000.0     -1000.0     -1000.0     -1000.0     -1000.0     -1000.0     -1000.0     -1000.0    
      -1000.0     -1000.0     -1000.0     -1000.0     -1000.0     -1000.0     -1000.0     -1000.0     -1000.0     -1000.0    
      -1000.0     -1000.0     -1000.0     -1000.0     -1000.0     -1000.0     -1000.0     -1000.0     -1000.0       70.00    
1
              HEAD IN LAYER   2 AT END OF TIME STEP   1 IN STRESS PERIOD    1
  ---------------------------------------------------------------------------

            1           2           3           4           5           6           7           8           9          10
           11          12          13          14          15          16          17          18          19          20
           21          22          23          24          25          26          27          28          29          30
           31          32          33          34          35          36          37          38          39          40
           41          42          43          44          45          46          47          48          49          50
 ........................................................................................................................
   1  -1000.0     -1000.0     -1000.0     -1000.0     -1000.0     -1000.0     -1000.0     -1000.0     -1000.0     -1000.0    
      -1000.0     -1000.0     -1000.0     -1000.0     -1000.0     -1000.0     -1000.0     -1000.0     -1000.0     -1000.0    
      -1000.0     -1000.0     -1000.0     -1000.0     -1000.0     -1000.0     -1000.0     -1000.0     -1000.0     -1000.0    
      -1000.0     -1000.0     -1000.0     -1000.0     -1000.0     -1000.0     -1000.0     -1000.0     -1000.0     -1000.0    
      -1000.0     -1000.0     -1000.0     -1000.0     -1000.0     -1000.0     -1000.0     -1000.0     -1000.0       70.00    
   2  -1000.0     -1000.0     -1000.0     -1000.0     -1000.0     -1000.0     -1000.0       86.46       86.25       86.01    
        85.81       85.57       85.29       85.00       84.68       84.34       83.98       83.62       83.25       82.86    
        82.48       82.08       81.68       81.28       80.87       80.46       80.05       79.64       79.23       78.81    
        78.40       77.98       77.56       77.14       76.72       76.30       75.87       75.44       75.01       74.58    
        74.14       73.70       73.25       72.80       72.34       71.88       71.42       70.95       70.48       70.00    
   3  -1000.0     -1000.0     -1000.0     -1000.0     -1000.0     -1000.0       86.69       86.50       86.28       86.07    
        85.85       85.59       85.32       85.01       84.69       84.35       83.99       83.63       83.25       82.87    
        82.48       82.08       81.68       81.28       80.87       80.46       80.05       79.64       79.23       78.81    
        78.39       77.98       77.56       77.14       76.72       76.30       75.87       75.44       75.01       74.58    
        74.14       73.70       73.25       72.80       72.34       71.88       71.42       70.95       70.48       70.00    
   4  -1000.0     -1000.0     -1000.0     -1000.0     -1000.0       86.96       86.78       86.57       86.37       86.15    
        85.91       85.64       85.36       85.05       84.72       84.37       84.01       83.64       83.27       82.88    
        82.49       82.09       81.69       81.28       80.87       80.46       80.05       79.64       79.22       78.81    
        78.39       77.98       77.56       77.14       76.72       76.30       75.87       75.45       75.02       74.58    
        74.14       73.70       73.25       72.80       72.35       71.89       71.42       70.95       70.48       70.00    
   5  -1000.0     -1000.0     -1000.0     -1000.0       87.27       87.09       86.90       86.70       86.48       86.24    
        85.99       85.71       85.41       85.10       84.76       84.41       84.04       83.67       83.28       82.89    
        82.50       82.10       81.69       81.28       80.87       80.46       80.05       79.63       79.22       78.80    
        78.39       77.97       77.56       77.14       76.72       76.30       75.87       75.45       75.02       74.59    
        74.15       73.71       73.26       72.81       72.35       71.89       71.42       70.95       70.48       70.00    
   6  -1000.0     -1000.0     -1000.0       87.58       87.42       87.24       87.04       86.83       86.60       86.36    
        86.09       85.80       85.49       85.16       84.81       84.45       84.08       83.70       83.31       82.91    
        82.51       82.11       81.70       81.29       80.87       80.46       80.04       79.63       79.21       78.80    
        78.38       77.97       77.55       77.14       76.72       76.30       75.88       75.45       75.02       74.59    
        74.15       73.71       73.27       72.81       72.36       71.90       71.43       70.96       70.48       70.00    
   7  -1000.0     -1000.0       87.86       87.74       87.59       87.41       87.21       86.99       86.74       86.48    
        86.20       85.90       85.57       85.23       84.87       84.50       84.12       83.73       83.34       82.94    
        82.53       82.12       81.70       81.29       80.87       80.46       80.04       79.62       79.21       78.79    
        78.38       77.96       77.55       77.13       76.72       76.30       75.88       75.46       75.03       74.60    
        74.16       73.72       73.28       72.82       72.37       71.90       71.43       70.96       70.48       70.00    
   8  -1000.0       88.10       88.04       87.93       87.77       87.59       87.38       87.15       86.90       86.63    
        86.33       86.01       85.67       85.32       84.95       84.56       84.17       83.78       83.37       82.96    
        82.55       82.13       81.71       81.29       80.87       80.45       80.03       79.61       79.20       78.78    
        78.37       77.95       77.54       77.13       76.71       76.30       75.88       75.46       75.04       74.61    
        74.17       73.73       73.29       72.84       72.38       71.91       71.44       70.97       70.49       70.00    
   9  -1000.0       88.31       88.26       88.13       87.98       87.79       87.58       87.34       87.08       86.79    
        86.47       86.14       85.78       85.41       85.03       84.63       84.23       83.82       83.41       82.99    
        82.57       82.14       81.72       81.29       80.86       80.44       80.02       79.60       79.18       78.77    
        78.35       77.94       77.53       77.12       76.71       76.30       75.88       75.47       75.05       74.62    
        74.19       73.75       73.30       72.85       72.39       71.93       71.45       70.97       70.49       70.00    
  10  -1000.0       88.56       88.48       88.36       88.20       88.02       87.80       87.55       87.27       86.97    
        86.64       86.28       85.91       85.51       85.11       84.70       84.29       83.87       83.45       83.02    
        82.59       82.15       81.72       81.29       80.86       80.43       80.00       79.58       79.16       78.75    
        78.34       77.93       77.52       77.11       76.71       76.30       75.89       75.48       75.06       74.63    
        74.21       73.77       73.33       72.87       72.41       71.94       71.47       70.98       70.49       70.00    
  11  -1000.0       88.79       88.72       88.61       88.46       88.27       88.04       87.78       87.49       87.17    
        86.82       86.44       86.04       85.62       85.19       84.77       84.35       83.93       83.49       83.05    
        82.61       82.16       81.72       81.28       80.84       80.41       79.98       79.56       79.14       78.72    
        78.32       77.91       77.51       77.10       76.70       76.30       75.89       75.49       75.07       74.65    
        74.23       73.79       73.35       72.90       72.44       71.97       71.49       71.00       70.50       70.00    
  12  -1000.0       89.07       89.01       88.90       88.75       88.55       88.31       88.04       87.73       87.39    
        87.02       86.62       86.19       85.73       85.26       84.85       84.42       83.98       83.54       83.08    
        82.63       82.17       81.72       81.27       80.82       80.38       79.95       79.53       79.11       78.70    
        78.29       77.89       77.49       77.09       76.70       76.30       75.90       75.50       75.09       74.68    
        74.26       73.82       73.38       72.93       72.47       71.99       71.51       71.01       70.51       70.00    
  13  -1000.0       89.40       89.35       89.24       89.08       88.87       88.62       88.33       88.00       87.64    
        87.24       86.82       86.36       85.86       85.27       84.92       84.50       84.05       83.58       83.11    
        82.64       82.17       81.70       81.24       80.79       80.35       79.91       79.48       79.07       78.66    
        78.26       77.86       77.47       77.08       76.69       76.30       75.91       75.51       75.11       74.71    
        74.29       73.86       73.42       72.97       72.51       72.03       71.54       71.03       70.52       70.00    
  14  -1000.0       89.79       89.73       89.61       89.44       89.22       88.96       88.65       88.30       87.91    
        87.50       87.05       86.57       86.06       85.54       85.08       84.61       84.13       83.64       83.14    
        82.65       82.17       81.68       81.21       80.75       80.30       79.86       79.43       79.02       78.61    
        78.21       77.82       77.44       77.06       76.68       76.30       75.92       75.53       75.14       74.74    
        74.33       73.91       73.48       73.03       72.56       72.07       71.57       71.06       70.53       70.00    
  15  -1000.0       90.23       90.17       90.04       89.86       89.62       89.33       89.00       88.63       88.21    
        87.77       87.30       86.80       86.28       85.75       85.24       84.72       84.21       83.69       83.17    
        82.66       82.15       81.65       81.17       80.70       80.24       79.80       79.37       78.96       78.55    
        78.16       77.78       77.41       77.04       76.67       76.30       75.93       75.56       75.18       74.79    
        74.39       73.97       73.54       73.09       72.62       72.13       71.62       71.10       70.55       70.00    
  16  -1000.0       90.73       90.66       90.52       90.32       90.06       89.75       89.39       88.98       88.54    
        88.07       87.57       87.04       86.50       85.94       85.39       84.84       84.29       83.74       83.19    
        82.65       82.12       81.61       81.11       80.62       80.16       79.72       79.29       78.88       78.49    
        78.10       77.73       77.37       77.01       76.66       76.30       75.94       75.58       75.22       74.84    
        74.45       74.04       73.62       73.17       72.70       72.21       71.69       71.14       70.58       70.00    
  17  -1000.0       91.29       91.21       91.06       90.84       90.55       90.21       89.81       89.37       88.90    
        88.39       87.85       87.29       86.72       86.13       85.54       84.95       84.36       83.78       83.20    
        82.63       82.08       81.54       81.03       80.53       80.06       79.61       79.19       78.79       78.40    
        78.03       77.67       77.32       76.98       76.64       76.30       75.96       75.62       75.26       74.90    
        74.53       74.13       73.72       73.28       72.81       72.30       71.77       71.20       70.61       70.00    
  18  -1000.0       91.92       91.83       91.66       91.41       91.09       90.71       90.27       89.79       89.27    
        88.72       88.15       87.55       86.94       86.31       85.68       85.06       84.43       83.81       83.20    
        82.60       82.02       81.45       80.92       80.41       79.93       79.49       79.07       78.67       78.30    
        77.95       77.60       77.27       76.95       76.62       76.30       75.98       75.66       75.32       74.98    
        74.62       74.24       73.84       73.41       72.94       72.43       71.88       71.28       70.65       70.00    
  19  -1000.0       92.63       92.53       92.33       92.04       91.68       91.25       90.77       90.24       89.68    
        89.08       88.46       87.82       87.16       86.50       85.82       85.15       84.49       83.83       83.18    
        82.54       81.92       81.34       80.78       80.26       79.78       79.33       78.92       78.54       78.18    
        77.84       77.52       77.21       76.91       76.61       76.31       76.01       75.70       75.39       75.07    
        74.73       74.37       73.99       73.57       73.11       72.59       72.02       71.40       70.72       70.00    
  20  -1000.0       93.43       93.31       93.07       92.74       92.33       91.84       91.30       90.72       90.10    
        89.45       88.78       88.09       87.39       86.67       85.96       85.24       84.53       83.83       83.13    
        82.46       81.80       81.18       80.60       80.07       79.58       79.14       78.74       78.38       78.04    
        77.73       77.43       77.14       76.86       76.59       76.31       76.03       75.75       75.46       75.17    
        74.86       74.53       74.17       73.77       73.32       72.81       72.22       71.55       70.80       70.00    
  21  -1000.0       94.35       94.20       93.91       93.51       93.03       92.48       91.87       91.22       90.54    
        89.83       89.11       88.36       87.61       86.85       86.08       85.32       84.56       83.81       83.07    
        82.34       81.64       80.98       80.37       79.82       79.33       78.90       78.53       78.19       77.88    
        77.60       77.33       77.07       76.82       76.57       76.32       76.07       75.81       75.54       75.28    
        75.01       74.72       74.39       74.02       73.59       73.09       72.50       71.78       70.94       70.00    
  22  -1000.0       95.40       95.20       94.84       94.36       93.79       93.15       92.47       91.75       91.00    
        90.23       89.44       88.64       87.83       87.02       86.20       85.38       84.57       83.77       82.98    
        82.19       81.44       80.73       80.08       79.50       79.02       78.62       78.27       77.97       77.70    
        77.45       77.21       76.98       76.76       76.55       76.33       76.11       75.87       75.60       75.42    
        75.19       74.94       74.65       74.32       73.94       73.47       72.89       72.13       71.17       70.00    
  23  -1000.0       96.63       96.35       95.88       95.28       94.60       93.87       93.09       92.29       91.47    
        90.63       89.78       88.92       88.05       87.18       86.30       85.43       84.56       83.70       82.85    
        82.01       81.19       80.42       79.70       79.10       78.63       78.27       77.97       77.72       77.49    
        77.28       77.09       76.90       76.71       76.53       76.35       76.16       75.97       75.77       75.59    
        75.40       75.19       74.95       74.68       74.36       73.96       73.43       72.68       71.58       70.00    
  24  -1000.0       98.13       97.68       97.03       96.27       95.46       94.61       93.73       92.84       91.94    
        91.03       90.11       89.19       88.26       87.33       86.40       85.47       84.54       83.62       82.70    
        81.79       80.89       80.03       79.22       78.54       78.13       77.85       77.63       77.44       77.27    
        77.11       76.95       76.81       76.66       76.51       76.37       76.22       76.07       75.92       75.78    
        75.63       75.46       75.29       75.09       74.86       74.58       74.19       73.57       72.43       70.00    
  25  -1000.0       100.0       99.19       98.26       97.30       96.33       95.36       94.38       93.40       92.41    
        91.43       90.44       89.45       88.47       87.48       86.49       85.50       84.51       83.52       82.53    
        81.54       80.56       79.57       78.60       77.69       77.51       77.38       77.26       77.15       77.04    
        76.93       76.82       76.71       76.61       76.50       76.40       76.29       76.18       76.08       75.97    
        75.86       75.76       75.65       75.53       75.42       75.29       75.15       74.97       74.50       70.00    
  26  -1000.0       98.13       97.68       97.03       96.27       95.46       94.61       93.74       92.85       91.95    
        91.04       90.12       89.19       88.27       87.34       86.41       85.47       84.55       83.62       82.70    
        81.79       80.90       80.03       79.23       78.54       78.13       77.85       77.63       77.44       77.27    
        77.11       76.96       76.81       76.66       76.52       76.38       76.24       76.09       75.94       75.79    
        75.64       75.47       75.29       75.09       74.86       74.57       74.18       73.57       72.43       70.00    
  27  -1000.0       96.63       96.35       95.88       95.28       94.60       93.87       93.10       92.30       91.47    
        90.64       89.79       88.93       88.06       87.19       86.31       85.44       84.57       83.71       82.85    
        82.02       81.20       80.43       79.72       79.11       78.64       78.28       77.98       77.73       77.50    
        77.29       77.09       76.91       76.72       76.54       76.36       76.18       76.00       75.82       75.62    
        75.42       75.20       74.96       74.69       74.36       73.96       73.43       72.68       71.58       70.00    
  28  -1000.0       95.40       95.20       94.84       94.36       93.79       93.16       92.48       91.76       91.01    
        90.24       89.46       88.66       87.85       87.04       86.22       85.40       84.58       83.78       82.98    
        82.21       81.46       80.75       80.10       79.52       79.04       78.63       78.28       77.98       77.71    
        77.46       77.22       77.00       76.78       76.56       76.35       76.14       75.92       75.70       75.47    
        75.22       74.96       74.66       74.33       73.94       73.47       72.89       72.13       71.17       70.00    
  29  -1000.0       94.35       94.20       93.91       93.52       93.03       92.48       91.88       91.24       90.56    
        89.86       89.13       88.39       87.64       86.88       86.11       85.34       84.58       83.83       83.08    
        82.36       81.67       81.01       80.40       79.84       79.35       78.92       78.54       78.20       77.89    
        77.61       77.34       77.08       76.83       76.59       76.34       76.10       75.85       75.59       75.33    
        75.04       74.74       74.40       74.03       73.60       73.10       72.50       71.78       70.94       70.00    
  30  -1000.0       93.43       93.31       93.08       92.75       92.33       91.85       91.32       90.74       90.12    
        89.48       88.81       88.12       87.42       86.71       85.99       85.28       84.56       83.85       83.16    
        82.48       81.83       81.21       80.63       80.09       79.60       79.16       78.76       78.40       78.06    
        77.74       77.45       77.16       76.88       76.61       76.34       76.06       75.79       75.50       75.20    
        74.89       74.55       74.18       73.78       73.33       72.81       72.22       71.55       70.81       70.00    
  31  -1000.0       92.63       92.53       92.33       92.05       91.69       91.26       90.79       90.26       89.70    
        89.11       88.50       87.86       87.21       86.55       85.87       85.20       84.53       83.87       83.21    
        82.58       81.96       81.37       80.81       80.29       79.80       79.35       78.94       78.56       78.20    
        77.86       77.54       77.23       76.93       76.63       76.33       76.03       75.73       75.42       75.09    
        74.75       74.39       74.00       73.58       73.11       72.60       72.03       71.40       70.72       70.00    
  32  -1000.0       91.92       91.83       91.66       91.41       91.10       90.72       90.29       89.82       89.31    
        88.77       88.20       87.61       87.00       86.38       85.75       85.12       84.49       83.86       83.24    
        82.64       82.06       81.49       80.95       80.44       79.96       79.51       79.09       78.69       78.32    
        77.96       77.62       77.29       76.96       76.64       76.33       76.01       75.68       75.35       75.00    
        74.64       74.26       73.85       73.42       72.94       72.43       71.88       71.29       70.65       70.00    
  33  -1000.0       91.28       91.21       91.06       90.84       90.56       90.22       89.83       89.40       88.94    
        88.44       87.91       87.36       86.80       86.22       85.62       85.03       84.43       83.84       83.26    
        82.68       82.13       81.58       81.06       80.57       80.09       79.64       79.21       78.81       78.42    
        78.05       77.69       77.34       77.00       76.66       76.32       75.98       75.64       75.29       74.92    
        74.54       74.15       73.73       73.29       72.81       72.31       71.77       71.20       70.61       70.00    
  34  -1000.0       90.72       90.65       90.52       90.32       90.07       89.76       89.41       89.02       88.59    
        88.13       87.64       87.13       86.60       86.05       85.50       84.94       84.37       83.81       83.26    
        82.71       82.17       81.65       81.15       80.66       80.19       79.74       79.31       78.90       78.51    
        78.12       77.75       77.39       77.03       76.67       76.32       75.96       75.60       75.23       74.86    
        74.46       74.06       73.63       73.18       72.71       72.21       71.69       71.14       70.58       70.00    
  35  -1000.0       90.21       90.15       90.03       89.86       89.63       89.35       89.02       88.66       88.26    
        87.84       87.38       86.90       86.41       85.90       85.37       84.84       84.31       83.77       83.24    
        82.72       82.21       81.70       81.21       80.73       80.27       79.83       79.40       78.98       78.58    
        78.18       77.80       77.43       77.06       76.69       76.32       75.95       75.57       75.19       74.80    
        74.40       73.98       73.55       73.10       72.63       72.14       71.63       71.10       70.55       70.00    
  36  -1000.0       89.77       89.71       89.60       89.44       89.22       88.97       88.67       88.33       87.96    
        87.57       87.14       86.69       86.23       85.74       85.25       84.74       84.24       83.73       83.22    
        82.72       82.22       81.73       81.26       80.79       80.33       79.89       79.46       79.04       78.63    
        78.24       77.84       77.46       77.08       76.70       76.32       75.94       75.55       75.16       74.76    
        74.35       73.92       73.49       73.03       72.57       72.08       71.58       71.06       70.54       70.00    
  37  -1000.0       89.37       89.32       89.21       89.06       88.86       88.62       88.35       88.03       87.69    
        87.31       86.92       86.49       86.05       85.60       85.13       84.65       84.16       83.68       83.19    
        82.71       82.23       81.75       81.29       80.83       80.38       79.94       79.51       79.09       78.68    
        78.28       77.88       77.49       77.10       76.71       76.32       75.93       75.53       75.13       74.72    
        74.30       73.87       73.43       72.98       72.52       72.03       71.54       71.04       70.52       70.00    
  38  -1000.0       89.02       88.97       88.87       88.72       88.54       88.31       88.05       87.76       87.43    
        87.08       86.71       86.31       85.89       85.46       85.01       84.55       84.09       83.63       83.16    
        82.69       82.23       81.76       81.31       80.86       80.42       79.98       79.55       79.13       78.72    
        78.31       77.91       77.51       77.11       76.71       76.32       75.92       75.51       75.11       74.69    
        74.27       73.84       73.39       72.94       72.48       72.00       71.51       71.02       70.51       70.00    
  39  -1000.0       88.72       88.66       88.57       88.43       88.25       88.03       87.79       87.51       87.20    
        86.87       86.52       86.14       85.74       85.33       84.90       84.46       84.02       83.57       83.12    
        82.67       82.22       81.77       81.32       80.88       80.44       80.01       79.58       79.16       78.75    
        78.34       77.93       77.53       77.12       76.72       76.32       75.91       75.50       75.09       74.67    
        74.24       73.80       73.36       72.91       72.44       71.97       71.49       71.00       70.50       70.00    
  40  -1000.0       88.46       88.40       88.30       88.16       87.99       87.78       87.55       87.28       86.99    
        86.68       86.34       85.98       85.60       85.21       84.80       84.38       83.95       83.52       83.08    
        82.64       82.20       81.76       81.33       80.89       80.46       80.03       79.61       79.19       78.77    
        78.36       77.95       77.54       77.13       76.72       76.32       75.90       75.49       75.07       74.65    
        74.22       73.78       73.33       72.88       72.42       71.95       71.47       70.99       70.50       70.00    
  41  -1000.0       88.26       88.18       88.07       87.93       87.76       87.56       87.33       87.08       86.80    
        86.50       86.18       85.84       85.48       85.10       84.70       84.30       83.89       83.47       83.04    
        82.62       82.19       81.76       81.33       80.90       80.47       80.05       79.62       79.21       78.79    
        78.37       77.96       77.55       77.14       76.73       76.31       75.90       75.48       75.06       74.63    
        74.20       73.76       73.31       72.86       72.40       71.93       71.46       70.98       70.49       70.00    
  42  -1000.0       88.03       87.98       87.86       87.72       87.55       87.35       87.14       86.89       86.63    
        86.34       86.03       85.71       85.36       85.00       84.62       84.22       83.83       83.42       83.01    
        82.59       82.17       81.75       81.32       80.90       80.48       80.06       79.64       79.22       78.80    
        78.39       77.97       77.56       77.15       76.73       76.31       75.90       75.47       75.05       74.62    
        74.18       73.74       73.30       72.84       72.38       71.92       71.45       70.97       70.49       70.00    
  43  -1000.0       87.83       87.78       87.68       87.53       87.36       87.17       86.96       86.73       86.48    
        86.20       85.91       85.59       85.26       84.90       84.54       84.16       83.77       83.37       82.97    
        82.56       82.15       81.73       81.32       80.90       80.48       80.06       79.65       79.23       78.81    
        78.40       77.98       77.57       77.15       76.73       76.31       75.89       75.47       75.04       74.61    
        74.17       73.73       73.28       72.83       72.37       71.91       71.44       70.96       70.48       70.00    
  44  -1000.0     -1000.0       87.61       87.50       87.36       87.19       87.01       86.80       86.58       86.34    
        86.07       85.79       85.49       85.16       84.82       84.47       84.10       83.72       83.33       82.94    
        82.54       82.13       81.72       81.31       80.90       80.48       80.07       79.65       79.24       78.82    
        78.40       77.99       77.57       77.15       76.73       76.31       75.89       75.46       75.03       74.60    
        74.16       73.72       73.27       72.82       72.36       71.90       71.43       70.96       70.48       70.00    
  45  -1000.0     -1000.0     -1000.0       87.35       87.20       87.04       86.86       86.66       86.45       86.22    
        85.96       85.69       85.40       85.09       84.76       84.41       84.05       83.68       83.30       82.91    
        82.52       82.12       81.71       81.30       80.89       80.48       80.07       79.66       79.24       78.82    
        78.41       77.99       77.57       77.16       76.73       76.31       75.89       75.46       75.03       74.59    
        74.16       73.71       73.26       72.81       72.35       71.89       71.43       70.95       70.48       70.00    
  46  -1000.0     -1000.0     -1000.0     -1000.0       87.06       86.90       86.72       86.53       86.33       86.11    
        85.87       85.61       85.32       85.02       84.70       84.36       84.01       83.64       83.27       82.89    
        82.50       82.10       81.70       81.30       80.89       80.48       80.07       79.66       79.24       78.83    
        78.41       78.00       77.58       77.16       76.74       76.31       75.89       75.46       75.03       74.59    
        74.15       73.71       73.26       72.81       72.35       71.89       71.42       70.95       70.48       70.00    
  47  -1000.0     -1000.0     -1000.0     -1000.0     -1000.0       86.78       86.61       86.42       86.23       86.02    
        85.79       85.54       85.27       84.97       84.66       84.32       83.97       83.62       83.25       82.87    
        82.48       82.09       81.69       81.29       80.89       80.48       80.07       79.66       79.25       78.83    
        78.41       78.00       77.58       77.16       76.74       76.31       75.88       75.46       75.02       74.59    
        74.15       73.70       73.25       72.80       72.35       71.88       71.42       70.95       70.48       70.00    
  48  -1000.0     -1000.0     -1000.0     -1000.0     -1000.0     -1000.0       86.53       86.35       86.14       85.94    
        85.73       85.49       85.23       84.94       84.63       84.30       83.95       83.60       83.23       82.86    
        82.47       82.08       81.69       81.29       80.89       80.48       80.07       79.66       79.25       78.83    
        78.42       78.00       77.58       77.16       76.74       76.31       75.88       75.45       75.02       74.58    
        74.14       73.70       73.25       72.80       72.34       71.88       71.42       70.95       70.48       70.00    
  49  -1000.0     -1000.0     -1000.0     -1000.0     -1000.0     -1000.0     -1000.0       86.31       86.11       85.88    
        85.69       85.46       85.20       84.92       84.61       84.28       83.94       83.59       83.22       82.85    
        82.47       82.08       81.69       81.29       80.88       80.48       80.07       79.66       79.25       78.83    
        78.42       78.00       77.58       77.16       76.74       76.31       75.88       75.45       75.02       74.58    
        74.14       73.70       73.25       72.80       72.34       71.88       71.42       70.95       70.48       70.00    
  50  -1000.0     -1000.0     -1000.0     -1000.0     -1000.0     -1000.0     -1000.0     -1000.0     -1000.0     -1000.0    
      -1000.0     -1000.0     -1000.0     -1000.0     -1000.0     -1000.0     -1000.0     -1000.0     -1000.0     -1000.0    
      -1000.0     -1000.0     -1000.0     -1000.0     -1000.0     -1000.0     -1000.0     -1000.0     -1000.0     -1000.0    
      -1000.0     -1000.0     -1000.0     -1000.0     -1000.0     -1000.0     -1000.0     -1000.0     -1000.0     -1000.0    
      -1000.0     -1000.0     -1000.0     -1000.0     -1000.0     -1000.0     -1000.0     -1000.0     -1000.0       70.00    
1
              HEAD IN LAYER   3 AT END OF TIME STEP   1 IN STRESS PERIOD    1
  ---------------------------------------------------------------------------

            1           2           3           4           5           6           7           8           9          10
           11          12          13          14          15          16          17          18          19          20
           21          22          23          24          25          26          27          28          29          30
           31          32          33          34          35          36          37          38          39          40
[...]
        82.01       81.19       80.42       79.70       79.10       78.63       78.27       77.97       77.72       77.49    
        77.28       77.09       76.90       76.71       76.53       76.35       76.16       75.97       75.77       75.59    
        75.40       75.19       74.95       74.68       74.36       73.96       73.43       72.68       71.58       70.00    
  24  -1000.0       98.13       97.68       97.03       96.27       95.46       94.61       93.73       92.84       91.94    
        91.03       90.11       89.19       88.26       87.33       86.40       85.47       84.54       83.62       82.70    
        81.79       80.89       80.03       79.22       78.54       78.13       77.85       77.63       77.44       77.27    
        77.11       76.95       76.81       76.66       76.51       76.37       76.22       76.07       75.92       75.78    
        75.63       75.46       75.29       75.09       74.86       74.58       74.19       73.57       72.43       70.00    
  25  -1000.0       100.0       99.19       98.25       97.30       96.33       95.36       94.38       93.40       92.41    
        91.43       90.44       89.45       88.46       87.48       86.49       85.50       84.51       83.52       82.53    
        81.54       80.56       79.58       78.60       77.69       77.51       77.38       77.26       77.15       77.04    
        76.93       76.82       76.71       76.61       76.50       76.40       76.29       76.18       76.08       75.97    
        75.86       75.76       75.64       75.53       75.41       75.29       75.15       74.97       74.49       70.00    
  26  -1000.0       98.13       97.68       97.03       96.27       95.46       94.61       93.74       92.85       91.95    
        91.04       90.12       89.19       88.27       87.34       86.41       85.47       84.55       83.62       82.70    
        81.79       80.90       80.03       79.23       78.54       78.13       77.85       77.63       77.44       77.27    
        77.11       76.96       76.81       76.66       76.52       76.38       76.24       76.09       75.94       75.79    
        75.64       75.47       75.29       75.09       74.86       74.57       74.18       73.57       72.43       70.00    
  27  -1000.0       96.63       96.35       95.88       95.28       94.60       93.87       93.10       92.30       91.47    
        90.64       89.79       88.93       88.06       87.19       86.31       85.44       84.57       83.71       82.85    
        82.02       81.20       80.43       79.72       79.11       78.64       78.28       77.98       77.73       77.50    
        77.29       77.09       76.91       76.72       76.54       76.36       76.18       76.00       75.82       75.62    
        75.42       75.20       74.96       74.69       74.36       73.96       73.43       72.68       71.58       70.00    
  28  -1000.0       95.40       95.20       94.84       94.36       93.79       93.16       92.48       91.76       91.01    
        90.24       89.46       88.66       87.85       87.04       86.22       85.40       84.58       83.78       82.98    
        82.21       81.46       80.75       80.10       79.52       79.04       78.63       78.28       77.98       77.71    
        77.46       77.22       77.00       76.78       76.56       76.35       76.14       75.92       75.70       75.47    
        75.22       74.96       74.66       74.33       73.94       73.47       72.89       72.13       71.17       70.00    
  29  -1000.0       94.35       94.20       93.91       93.52       93.03       92.48       91.88       91.24       90.56    
        89.86       89.13       88.39       87.64       86.88       86.11       85.34       84.58       83.83       83.08    
        82.36       81.67       81.01       80.40       79.84       79.35       78.92       78.54       78.20       77.89    
        77.61       77.34       77.08       76.83       76.59       76.34       76.10       75.85       75.59       75.33    
        75.04       74.74       74.40       74.03       73.60       73.10       72.50       71.78       70.94       70.00    
  30  -1000.0       93.43       93.31       93.08       92.75       92.33       91.85       91.32       90.74       90.12    
        89.48       88.81       88.12       87.42       86.71       85.99       85.28       84.56       83.85       83.16    
        82.48       81.83       81.21       80.63       80.09       79.60       79.16       78.76       78.40       78.06    
        77.74       77.45       77.16       76.88       76.61       76.34       76.06       75.79       75.50       75.20    
        74.89       74.55       74.18       73.78       73.33       72.81       72.22       71.55       70.81       70.00    
  31  -1000.0       92.63       92.53       92.33       92.05       91.69       91.26       90.79       90.26       89.70    
        89.11       88.50       87.86       87.21       86.55       85.87       85.20       84.53       83.87       83.21    
        82.58       81.96       81.37       80.81       80.29       79.80       79.35       78.94       78.56       78.20    
        77.86       77.54       77.23       76.93       76.63       76.33       76.03       75.73       75.42       75.09    
        74.75       74.39       74.00       73.58       73.11       72.60       72.03       71.40       70.72       70.00    
  32  -1000.0       91.92       91.83       91.66       91.41       91.10       90.72       90.29       89.82       89.31    
        88.77       88.20       87.61       87.00       86.38       85.75       85.12       84.49       83.86       83.24    
        82.64       82.06       81.49       80.95       80.44       79.96       79.51       79.09       78.69       78.32    
        77.96       77.62       77.29       76.96       76.64       76.33       76.01       75.68       75.35       75.00    
        74.64       74.26       73.85       73.42       72.94       72.43       71.88       71.29       70.65       70.00    
  33  -1000.0       91.28       91.21       91.06       90.84       90.56       90.22       89.83       89.40       88.94    
        88.44       87.91       87.36       86.80       86.22       85.62       85.03       84.43       83.84       83.26    
        82.68       82.13       81.58       81.06       80.57       80.09       79.64       79.21       78.81       78.42    
        78.05       77.69       77.34       77.00       76.66       76.32       75.98       75.64       75.29       74.92    
        74.54       74.15       73.73       73.29       72.81       72.31       71.77       71.20       70.61       70.00    
  34  -1000.0       90.72       90.65       90.52       90.32       90.07       89.76       89.41       89.02       88.59    
        88.13       87.64       87.13       86.60       86.05       85.50       84.94       84.37       83.81       83.26    
        82.71       82.17       81.65       81.15       80.66       80.19       79.74       79.31       78.90       78.51    
        78.12       77.75       77.39       77.03       76.67       76.32       75.96       75.60       75.23       74.86    
        74.46       74.06       73.63       73.18       72.71       72.21       71.69       71.14       70.58       70.00    
  35  -1000.0       90.21       90.15       90.03       89.86       89.63       89.35       89.02       88.66       88.26    
        87.84       87.38       86.90       86.41       85.90       85.37       84.84       84.31       83.77       83.24    
        82.72       82.21       81.70       81.21       80.73       80.27       79.83       79.40       78.98       78.58    
        78.18       77.80       77.43       77.06       76.69       76.32       75.95       75.57       75.19       74.80    
        74.40       73.98       73.55       73.10       72.63       72.14       71.63       71.10       70.55       70.00    
  36  -1000.0       89.77       89.71       89.60       89.44       89.22       88.97       88.67       88.33       87.96    
        87.57       87.14       86.69       86.23       85.74       85.25       84.74       84.24       83.73       83.22    
        82.72       82.22       81.73       81.26       80.79       80.33       79.89       79.46       79.04       78.63    
        78.24       77.84       77.46       77.08       76.70       76.32       75.94       75.55       75.16       74.76    
        74.35       73.92       73.49       73.03       72.57       72.08       71.58       71.06       70.54       70.00    
  37  -1000.0       89.37       89.32       89.21       89.06       88.86       88.62       88.35       88.03       87.69    
        87.31       86.92       86.49       86.05       85.60       85.13       84.65       84.16       83.68       83.19    
        82.71       82.23       81.75       81.29       80.83       80.38       79.94       79.51       79.09       78.68    
        78.28       77.88       77.49       77.10       76.71       76.32       75.93       75.53       75.13       74.72    
        74.30       73.87       73.43       72.98       72.52       72.03       71.54       71.04       70.52       70.00    
  38  -1000.0       89.02       88.97       88.87       88.72       88.54       88.31       88.05       87.76       87.43    
        87.08       86.71       86.31       85.89       85.46       85.01       84.55       84.09       83.63       83.16    
        82.69       82.23       81.76       81.31       80.86       80.42       79.98       79.55       79.13       78.72    
        78.31       77.91       77.51       77.11       76.71       76.32       75.92       75.51       75.11       74.69    
        74.27       73.84       73.39       72.94       72.48       72.00       71.51       71.02       70.51       70.00    
  39  -1000.0       88.72       88.66       88.57       88.43       88.25       88.03       87.79       87.51       87.20    
        86.87       86.52       86.14       85.74       85.33       84.90       84.46       84.02       83.57       83.12    
        82.67       82.22       81.77       81.32       80.88       80.44       80.01       79.58       79.16       78.75    
        78.34       77.93       77.53       77.12       76.72       76.32       75.91       75.50       75.09       74.67    
        74.24       73.80       73.36       72.91       72.44       71.97       71.49       71.00       70.50       70.00    
  40  -1000.0       88.46       88.40       88.30       88.16       87.99       87.78       87.55       87.28       86.99    
        86.68       86.34       85.98       85.60       85.21       84.80       84.38       83.95       83.52       83.08    
        82.64       82.20       81.76       81.33       80.89       80.46       80.03       79.61       79.19       78.77    
        78.36       77.95       77.54       77.13       76.72       76.31       75.90       75.49       75.07       74.65    
        74.22       73.78       73.33       72.88       72.42       71.95       71.47       70.99       70.50       70.00    
  41  -1000.0       88.26       88.18       88.07       87.93       87.76       87.56       87.33       87.08       86.80    
        86.50       86.18       85.84       85.48       85.10       84.70       84.30       83.89       83.47       83.04    
        82.62       82.19       81.76       81.33       80.90       80.47       80.05       79.62       79.21       78.79    
        78.37       77.96       77.55       77.14       76.73       76.31       75.90       75.48       75.06       74.63    
        74.20       73.76       73.31       72.86       72.40       71.93       71.46       70.98       70.49       70.00    
  42  -1000.0     -1000.0       87.98       87.86       87.72       87.55       87.35       87.14       86.89       86.63    
        86.34       86.03       85.71       85.36       85.00       84.62       84.22       83.83       83.42       83.01    
        82.59       82.17       81.75       81.32       80.90       80.48       80.06       79.64       79.22       78.80    
        78.39       77.97       77.56       77.15       76.73       76.31       75.90       75.47       75.05       74.62    
        74.18       73.74       73.30       72.84       72.38       71.92       71.45       70.97       70.49       70.00    
  43  -1000.0     -1000.0     -1000.0       87.68       87.53       87.36       87.17       86.96       86.73       86.48    
        86.20       85.91       85.59       85.26       84.90       84.54       84.16       83.77       83.37       82.97    
        82.56       82.15       81.73       81.32       80.90       80.48       80.06       79.65       79.23       78.81    
        78.40       77.98       77.57       77.15       76.73       76.31       75.89       75.47       75.04       74.61    
        74.17       73.73       73.28       72.83       72.37       71.91       71.44       70.96       70.48       70.00    
  44  -1000.0     -1000.0     -1000.0     -1000.0       87.36       87.19       87.01       86.80       86.58       86.34    
        86.07       85.79       85.49       85.16       84.82       84.47       84.10       83.72       83.33       82.94    
        82.54       82.13       81.72       81.31       80.90       80.48       80.07       79.65       79.24       78.82    
        78.40       77.99       77.57       77.15       76.73       76.31       75.89       75.46       75.03       74.60    
        74.16       73.72       73.27       72.82       72.36       71.90       71.43       70.96       70.48       70.00    
  45  -1000.0     -1000.0     -1000.0     -1000.0     -1000.0       87.04       86.86       86.66       86.45       86.22    
        85.96       85.69       85.40       85.09       84.76       84.41       84.05       83.68       83.30       82.91    
        82.52       82.12       81.71       81.30       80.89       80.48       80.07       79.66       79.24       78.82    
        78.41       77.99       77.57       77.16       76.73       76.31       75.89       75.46       75.03       74.59    
        74.16       73.71       73.26       72.81       72.35       71.89       71.43       70.95       70.48       70.00    
  46  -1000.0     -1000.0     -1000.0     -1000.0     -1000.0     -1000.0       86.72       86.53       86.33       86.11    
        85.87       85.61       85.32       85.02       84.70       84.36       84.01       83.64       83.27       82.89    
        82.50       82.10       81.70       81.30       80.89       80.48       80.07       79.66       79.24       78.83    
        78.41       78.00       77.58       77.16       76.74       76.31       75.89       75.46       75.03       74.59    
        74.15       73.71       73.26       72.81       72.35       71.89       71.42       70.95       70.48       70.00    
  47  -1000.0     -1000.0     -1000.0     -1000.0     -1000.0     -1000.0     -1000.0       86.42       86.23       86.02    
        85.79       85.54       85.27       84.97       84.66       84.32       83.97       83.62       83.25       82.87    
        82.48       82.09       81.69       81.29       80.89       80.48       80.07       79.66       79.25       78.83    
        78.41       78.00       77.58       77.16       76.74       76.31       75.88       75.46       75.02       74.59    
        74.15       73.70       73.25       72.80       72.35       71.88       71.42       70.95       70.48       70.00    
  48  -1000.0     -1000.0     -1000.0     -1000.0     -1000.0     -1000.0     -1000.0     -1000.0       86.14       85.94    
        85.73       85.49       85.23       84.94       84.63       84.30       83.95       83.60       83.23       82.86    
        82.47       82.08       81.69       81.29       80.89       80.48       80.07       79.66       79.25       78.83    
        78.42       78.00       77.58       77.16       76.74       76.31       75.88       75.45       75.02       74.58    
        74.14       73.70       73.25       72.80       72.34       71.88       71.42       70.95       70.48       70.00    
  49  -1000.0     -1000.0     -1000.0     -1000.0     -1000.0     -1000.0     -1000.0     -1000.0     -1000.0       85.88    
        85.69       85.46       85.20       84.92       84.61       84.28       83.94       83.59       83.22       82.85    
        82.47       82.08       81.69       81.29       80.88       80.48       80.07       79.66       79.25       78.83    
        78.42       78.00       77.58       77.16       76.74       76.31       75.88       75.45       75.02       74.58    
        74.14       73.70       73.25       72.80       72.34       71.88       71.42       70.95       70.48       70.00    
  50  -1000.0     -1000.0     -1000.0     -1000.0     -1000.0     -1000.0     -1000.0     -1000.0     -1000.0     -1000.0    
      -1000.0     -1000.0     -1000.0     -1000.0     -1000.0     -1000.0     -1000.0     -1000.0     -1000.0     -1000.0    
      -1000.0     -1000.0     -1000.0     -1000.0     -1000.0     -1000.0     -1000.0     -1000.0     -1000.0     -1000.0    
      -1000.0     -1000.0     -1000.0     -1000.0     -1000.0     -1000.0     -1000.0     -1000.0     -1000.0     -1000.0    
      -1000.0     -1000.0     -1000.0     -1000.0     -1000.0     -1000.0     -1000.0     -1000.0     -1000.0       70.00    

 HEAD WILL BE SAVED ON UNIT   51 AT END OF TIME STEP    1, STRESS PERIOD    1

 DRAWDOWN WILL BE SAVED ON UNIT   52 AT END OF TIME STEP    1, STRESS PERIOD    1
1
  VOLUMETRIC BUDGET FOR ENTIRE MODEL AT END OF TIME STEP    1, STRESS PERIOD   1
  ------------------------------------------------------------------------------

     CUMULATIVE VOLUMES      L**3       RATES FOR THIS TIME STEP      L**3/T
     ------------------                 ------------------------

           IN:                                      IN:
           ---                                      ---
             STORAGE =           0.0000               STORAGE =           0.0000
       CONSTANT HEAD =           0.0000         CONSTANT HEAD =           0.0000
               WELLS =         375.0000                 WELLS =         375.0000
       RIVER LEAKAGE =      350707.5000         RIVER LEAKAGE =      350707.5000
                  ET =           0.0000                    ET =           0.0000
            RECHARGE =       20160.0000              RECHARGE =       20160.0000

            TOTAL IN =      371242.5000              TOTAL IN =      371242.5000

          OUT:                                     OUT:
          ----                                     ----
             STORAGE =           0.0000               STORAGE =           0.0000
       CONSTANT HEAD =      267638.3438         CONSTANT HEAD =      267638.3438
               WELLS =        6000.0000                 WELLS =        6000.0000
       RIVER LEAKAGE =       90206.2266         RIVER LEAKAGE =       90206.2266
                  ET =        7397.1226                    ET =        7397.1226
            RECHARGE =           0.0000              RECHARGE =           0.0000

           TOTAL OUT =      371241.6875             TOTAL OUT =      371241.6875

            IN - OUT =           0.8125              IN - OUT =           0.8125

 PERCENT DISCREPANCY =           0.00     PERCENT DISCREPANCY =           0.00






         TIME SUMMARY AT END OF TIME STEP    1 IN STRESS PERIOD    1
                    SECONDS     MINUTES      HOURS       DAYS        YEARS
                    -----------------------------------------------------------
   TIME STEP LENGTH  86400.      1440.0      24.000      1.0000     2.73785E-03
 STRESS PERIOD TIME  86400.      1440.0      24.000      1.0000     2.73785E-03
         TOTAL TIME  86400.      1440.0      24.000      1.0000     2.73785E-03
1

 Run end date and time (yyyy/mm/dd hh:mm:ss): 2026/02/24 16:22:26
 Elapsed run time: 15.335 Seconds

