                                  MODFLOW-2005     
      U.S. GEOLOGICAL SURVEY MODULAR FINITE-DIFFERENCE GROUND-WATER FLOW MODEL
                            VERSION 1.12.00 2/3/2017

 LIST FILE: static_ensemble_1133111.list
                         UNIT    2

 OPENING static_ensemble_1133111.dis
 FILE TYPE:DIS   UNIT   11   STATUS:OLD    
 FORMAT:FORMATTED              ACCESS:SEQUENTIAL          

 OPENING static_ensemble_1133111.bas
 FILE TYPE:BAS6   UNIT   13   STATUS:OLD    
 FORMAT:FORMATTED              ACCESS:SEQUENTIAL          

 OPENING static_ensemble_1133111.lpf
 FILE TYPE:LPF   UNIT   15   STATUS:OLD    
 FORMAT:FORMATTED              ACCESS:SEQUENTIAL          

 OPENING static_ensemble_1133111.evt
 FILE TYPE:EVT   UNIT   22   STATUS:OLD    
 FORMAT:FORMATTED              ACCESS:SEQUENTIAL          

 OPENING static_ensemble_1133111.rch
 FILE TYPE:RCH   UNIT   19   STATUS:OLD    
 FORMAT:FORMATTED              ACCESS:SEQUENTIAL          

 OPENING static_ensemble_1133111.riv
 FILE TYPE:RIV   UNIT   18   STATUS:OLD    
 FORMAT:FORMATTED              ACCESS:SEQUENTIAL          

 OPENING static_ensemble_1133111.wel
 FILE TYPE:WEL   UNIT   20   STATUS:OLD    
 FORMAT:FORMATTED              ACCESS:SEQUENTIAL          

 OPENING static_ensemble_1133111.oc
 FILE TYPE:OC   UNIT   14   STATUS:OLD    
 FORMAT:FORMATTED              ACCESS:SEQUENTIAL          

 OPENING static_ensemble_1133111.pcg
 FILE TYPE:PCG   UNIT   27   STATUS:OLD    
 FORMAT:FORMATTED              ACCESS:SEQUENTIAL          

 OPENING static_ensemble_1133111.cbc
 FILE TYPE:DATA(BINARY)   UNIT   53   STATUS:REPLACE
 FORMAT:UNFORMATTED            ACCESS:STREAM              

 OPENING static_ensemble_1133111.hds
 FILE TYPE:DATA(BINARY)   UNIT   51   STATUS:REPLACE
 FORMAT:UNFORMATTED            ACCESS:STREAM              

 OPENING static_ensemble_1133111.ddn
 FILE TYPE:DATA(BINARY)   UNIT   52   STATUS:REPLACE
 FORMAT:UNFORMATTED            ACCESS:STREAM              

 BAS -- BASIC PACKAGE, VERSION 7, 5/2/2005 INPUT READ FROM UNIT   13
 
 MODFLOW was compiled using mixed precision
 Precision of REAL variables:           6
 Precision of DOUBLE PRECISION variables:          15

 DISCRETIZATION INPUT DATA READ FROM UNIT   11
 # DIS package for MODFLOW-2005 generated by Flopy 3.9.5
    3 LAYERS        50 ROWS        50 COLUMNS
    1 STRESS PERIOD(S) IN SIMULATION
 MODEL TIME UNIT IS DAYS
 MODEL LENGTH UNIT IS METERS
  Confining bed flag for each layer:
   0   0   0

                     DELR =   1000.00    

                     DELC =   1000.00    



           TOP ELEVATION OF LAYER 1
 READING ON UNIT   11 WITH FORMAT: (50E15.6)           



             MODEL LAYER BOTTOM EL. FOR LAYER   1
 READING ON UNIT   11 WITH FORMAT: (50E15.6)           



             MODEL LAYER BOTTOM EL. FOR LAYER   2
 READING ON UNIT   11 WITH FORMAT: (50E15.6)           



             MODEL LAYER BOTTOM EL. FOR LAYER   3
 READING ON UNIT   11 WITH FORMAT: (50E15.6)           


 STRESS PERIOD     LENGTH       TIME STEPS     MULTIPLIER FOR DELT    SS FLAG
 ----------------------------------------------------------------------------
        1         1.000000          1                    1.000         SS

 STEADY-STATE SIMULATION



 
 # BAS6 package for MODFLOW-2005 generated by Flopy 3.9.5                        
 THE FREE FORMAT OPTION HAS BEEN SELECTED



                     BOUNDARY ARRAY FOR LAYER   1
 READING ON UNIT   13 WITH FORMAT: (50I10)             



                     BOUNDARY ARRAY FOR LAYER   2
 READING ON UNIT   13 WITH FORMAT: (50I10)             



                     BOUNDARY ARRAY FOR LAYER   3
 READING ON UNIT   13 WITH FORMAT: (50I10)             

 AQUIFER HEAD WILL BE SET TO  -999.99     AT ALL NO-FLOW NODES (IBOUND=0).



                       INITIAL HEAD FOR LAYER   1
 READING ON UNIT   13 WITH FORMAT: (50E15.6)           



                       INITIAL HEAD FOR LAYER   2
 READING ON UNIT   13 WITH FORMAT: (50E15.6)           



                       INITIAL HEAD FOR LAYER   3
 READING ON UNIT   13 WITH FORMAT: (50E15.6)           
 # OC package for MODFLOW-2005 generated by Flopy 3.9.5

 OUTPUT CONTROL IS SPECIFIED ONLY AT TIME STEPS FOR WHICH OUTPUT IS DESIRED
 COMPACT CELL-BY-CELL BUDGET FILES WILL BE WRITTEN
 AUXILIARY DATA WILL BE SAVED IN CELL-BY-CELL BUDGET FILES
 HEAD PRINT FORMAT CODE IS   0    DRAWDOWN PRINT FORMAT CODE IS   0
 HEADS WILL BE SAVED ON UNIT   51    DRAWDOWNS WILL BE SAVED ON UNIT   52

 LPF -- LAYER-PROPERTY FLOW PACKAGE, VERSION 7, 5/2/2005
         INPUT READ FROM UNIT   15
 # LPF package for MODFLOW-2005 generated by Flopy 3.9.5
 CELL-BY-CELL FLOWS WILL BE SAVED ON UNIT   53
 HEAD AT CELLS THAT CONVERT TO DRY= -1.00000E+30
 No named parameters
 STORAGECOEFFICIENT OPTION:
 Read storage coefficient rather than specific storage

   LAYER FLAGS:
 LAYER       LAYTYP        LAYAVG         CHANI        LAYVKA        LAYWET
 ---------------------------------------------------------------------------
    1             1             0     1.000E+00             0             0
    2             1             0     1.000E+00             0             0
    3             1             0     1.000E+00             0             0

   INTERPRETATION OF LAYER FLAGS:
                        INTERBLOCK     HORIZONTAL    DATA IN
         LAYER TYPE   TRANSMISSIVITY   ANISOTROPY   ARRAY VKA   WETTABILITY
 LAYER      (LAYTYP)      (LAYAVG)       (CHANI)      (LAYVKA)      (LAYWET)
 ---------------------------------------------------------------------------
    1   CONVERTIBLE      HARMONIC     1.000E+00    VERTICAL K  NON-WETTABLE
    2   CONVERTIBLE      HARMONIC     1.000E+00    VERTICAL K  NON-WETTABLE
    3   CONVERTIBLE      HARMONIC     1.000E+00    VERTICAL K  NON-WETTABLE

 WETTING CAPABILITY IS NOT ACTIVE IN ANY LAYER



              HYD. COND. ALONG ROWS FOR LAYER   1
 READING ON UNIT   15 WITH FORMAT: (50E15.6)           



                VERTICAL HYD. COND. FOR LAYER   1
 READING ON UNIT   15 WITH FORMAT: (50E15.6)           



              HYD. COND. ALONG ROWS FOR LAYER   2
 READING ON UNIT   15 WITH FORMAT: (50E15.6)           



                VERTICAL HYD. COND. FOR LAYER   2
 READING ON UNIT   15 WITH FORMAT: (50E15.6)           



              HYD. COND. ALONG ROWS FOR LAYER   3
 READING ON UNIT   15 WITH FORMAT: (50E15.6)           



                VERTICAL HYD. COND. FOR LAYER   3
 READING ON UNIT   15 WITH FORMAT: (50E15.6)           

 WEL -- WELL PACKAGE, VERSION 7, 5/2/2005 INPUT READ FROM UNIT   20
 # WEL package for MODFLOW-2005 generated by Flopy 3.9.5
 No named parameters
 MAXIMUM OF      3 ACTIVE WELLS AT ONE TIME


     0 Well parameters

 RIV -- RIVER PACKAGE, VERSION 7, 5/2/2005 INPUT READ FROM UNIT   18
 # RIV package for MODFLOW-2005 generated by Flopy 3.9.5
 No named parameters
 MAXIMUM OF     49 ACTIVE RIVER REACHES AT ONE TIME
 CELL-BY-CELL FLOWS WILL BE SAVED ON UNIT   53


     0 River parameters

 EVT -- EVAPOTRANSPIRATION PACKAGE, VERSION 7, 5/2/2005
         INPUT READ FROM UNIT   22
 # EVT package for MODFLOW-2005 generated by Flopy 3.9.5
 No named parameters
 OPTION 3 -- EVAPOTRANSPIRATION FROM HIGHEST ACTIVE NODE IN EACH VERTICAL COLUMN
 CELL-BY-CELL FLOWS WILL BE SAVED ON UNIT   53


     0 Evapotranspiration parameters

 RCH -- RECHARGE PACKAGE, VERSION 7, 5/2/2005 INPUT READ FROM UNIT   19
 # RCH package for MODFLOW-2005 generated by Flopy 3.9.5
 No named parameters
 OPTION 3 -- RECHARGE TO HIGHEST ACTIVE NODE IN EACH VERTICAL COLUMN
 CELL-BY-CELL FLOWS WILL BE SAVED ON UNIT   53


     0 Recharge parameters

 PCG -- CONJUGATE-GRADIENT SOLUTION PACKAGE, VERSION 7, 5/2/2005
 # PCG package for MODFLOW-2005 generated by Flopy 3.9.5
 MAXIMUM OF   5000 CALLS OF SOLUTION ROUTINE
 MAXIMUM OF    500 INTERNAL ITERATIONS PER CALL TO SOLUTION ROUTINE
 MATRIX PRECONDITIONING TYPE :    1



                                    SOLUTION BY THE CONJUGATE-GRADIENT METHOD
                                   -------------------------------------------
                    MAXIMUM NUMBER OF CALLS TO PCG ROUTINE =     5000
                        MAXIMUM ITERATIONS PER CALL TO PCG =      500
                               MATRIX PRECONDITIONING TYPE =        1
        RELAXATION FACTOR (ONLY USED WITH PRECOND. TYPE 1) =    0.97000E+00
 PARAMETER OF POLYNOMIAL PRECOND. = 2 (2) OR IS CALCULATED :        0
                         HEAD CHANGE CRITERION FOR CLOSURE =    0.10000E-04
                     RESIDUAL CHANGE CRITERION FOR CLOSURE =    0.10000E-04
            PCG HEAD AND RESIDUAL CHANGE PRINTOUT INTERVAL =      999
     PRINTING FROM SOLVER IS LIMITED(1) OR SUPPRESSED (>1) =        3
                            STEADY-STATE DAMPING PARAMETER =    0.10000E-01
                               TRANSIENT DAMPING PARAMETER =    0.10000E-01
1
                            STRESS PERIOD NO.    1, LENGTH =   1.000000    
                            -----------------------------------------------

                              NUMBER OF TIME STEPS =     1

                               MULTIPLIER FOR DELT =     1.000

                            INITIAL TIME STEP SIZE =   1.000000    

 WELL NO.  LAYER   ROW   COL   STRESS RATE         
 --------------------------------------------------
      1      3     22     39      -1500.    
      2      1     13     15      -4500.    
      3      1     25     26       375.0    

      3 WELLS

 REACH NO.  LAYER   ROW   COL     STAGE      CONDUCTANCE     BOTTOM EL.         
 -------------------------------------------------------------------------------
      1      1     25      2       100.5           50.00           98.00    
      2      1     25      3       99.50           50.00           97.00    
      3      1     25      4       98.50           50.00           96.00    
      4      1     25      5       97.50           50.00           95.00    
      5      1     25      6       96.50           50.00           94.00    
      6      1     25      7       95.50           50.00           93.00    
      7      1     25      8       94.50           50.00           92.00    
      8      1     25      9       93.50           50.00           91.00    
      9      1     25     10       92.50           50.00           90.00    
     10      1     25     11       91.50           50.00           89.00    
     11      1     25     12       90.50           50.00           88.00    
     12      1     25     13       89.50           50.00           87.00    
     13      1     25     14       88.50           50.00           86.00    
     14      1     25     15       87.50           50.00           85.00    
     15      1     25     16       86.50           50.00           84.00    
     16      1     25     17       85.50           50.00           83.00    
     17      1     25     18       84.50           50.00           82.00    
     18      1     25     19       83.50           50.00           81.00    
     19      1     25     20       82.50           50.00           80.00    
     20      1     25     21       81.50           50.00           79.00    
     21      1     25     22       80.50           50.00           78.00    
     22      1     25     23       79.50           50.00           77.00    
     23      1     25     24       78.50           50.00           76.00    
     24      1     25     25       77.50           50.00           75.00    
     25      1     25     26       77.40           50.00           74.90    
     26      1     25     27       77.30           50.00           74.80    
     27      1     25     28       77.20           50.00           74.70    
     28      1     25     29       77.10           50.00           74.60    
     29      1     25     30       77.00           50.00           74.50    
     30      1     25     31       76.90           50.00           74.40    
     31      1     25     32       76.80           50.00           74.30    
     32      1     25     33       76.70           50.00           74.20    
     33      1     25     34       76.60           50.00           74.10    
     34      1     25     35       76.50           50.00           74.00    
     35      1     25     36       76.40           50.00           73.90    
     36      1     25     37       76.30           50.00           73.80    
     37      1     25     38       76.20           50.00           73.70    
     38      1     25     39       76.10           50.00           73.60    
     39      1     25     40       76.00           50.00           73.50    
     40      1     25     41       75.90           50.00           73.40    
     41      1     25     42       75.80           50.00           73.30    
     42      1     25     43       75.70           50.00           73.20    
     43      1     25     44       75.60           50.00           73.10    
     44      1     25     45       75.50           50.00           73.00    
     45      1     25     46       75.40           50.00           72.90    
     46      1     25     47       75.30           50.00           72.80    
     47      1     25     48       75.20           50.00           72.70    
     48      1     25     49       75.10           50.00           72.60    
     49      1     25     50       75.00           50.00           72.50    

     49 RIVER REACHES



                         ET SURFACE
 READING ON UNIT   22 WITH FORMAT: (50E15.6)           



            EVAPOTRANSPIRATION RATE
 READING ON UNIT   22 WITH FORMAT: (50E15.6)           

         EXTINCTION DEPTH =   10.0000    



                           RECHARGE
 READING ON UNIT   19 WITH FORMAT: (50E15.6)           
 
 SOLVING FOR HEAD 

 OUTPUT CONTROL FOR STRESS PERIOD    1   TIME STEP    1
    SAVE HEAD FOR ALL LAYERS
    SAVE DRAWDOWN FOR ALL LAYERS
    SAVE BUDGET
    PRINT HEAD FOR ALL LAYERS
    PRINT BUDGET
 UBDSV2 SAVING "   CONSTANT HEAD" ON UNIT  53 AT TIME STEP  1, STRESS PERIOD   1
 UBDSV1 SAVING "FLOW RIGHT FACE " ON UNIT  53 AT TIME STEP  1, STRESS PERIOD   1
 UBDSV1 SAVING "FLOW FRONT FACE " ON UNIT  53 AT TIME STEP  1, STRESS PERIOD   1
 UBDSV1 SAVING "FLOW LOWER FACE " ON UNIT  53 AT TIME STEP  1, STRESS PERIOD   1
 UBDSV4 SAVING "   RIVER LEAKAGE" ON UNIT  53 AT TIME STEP  1, STRESS PERIOD   1
 UBDSV3 SAVING "              ET" ON UNIT  53 AT TIME STEP  1, STRESS PERIOD   1
 UBDSV3 SAVING "        RECHARGE" ON UNIT  53 AT TIME STEP  1, STRESS PERIOD   1
1
              HEAD IN LAYER   1 AT END OF TIME STEP   1 IN STRESS PERIOD    1
  ---------------------------------------------------------------------------

            1           2           3           4           5           6           7           8           9          10
           11          12          13          14          15          16          17          18          19          20
           21          22          23          24          25          26          27          28          29          30
           31          32          33          34          35          36          37          38          39          40
           41          42          43          44          45          46          47          48          49          50
 ........................................................................................................................
   1  -1000.0     -1000.0     -1000.0     -1000.0     -1000.0     -1000.0     -1000.0     -1000.0     -1000.0     -1000.0    
      -1000.0     -1000.0     -1000.0     -1000.0     -1000.0     -1000.0     -1000.0     -1000.0     -1000.0     -1000.0    
      -1000.0     -1000.0     -1000.0     -1000.0     -1000.0     -1000.0     -1000.0     -1000.0     -1000.0     -1000.0    
      -1000.0     -1000.0     -1000.0     -1000.0     -1000.0     -1000.0     -1000.0     -1000.0     -1000.0     -1000.0    
      -1000.0     -1000.0     -1000.0     -1000.0     -1000.0     -1000.0     -1000.0     -1000.0     -1000.0       70.00    
   2  -1000.0     -1000.0     -1000.0     -1000.0     -1000.0       105.6       105.3       104.9       104.3       103.7    
        103.1       102.4       101.7       100.8       99.89       98.89       97.90       96.94       95.99       95.07    
        94.21       93.37       92.53       91.69       90.87       90.04       89.23       88.41       87.60       86.80    
        85.99       85.19       84.39       83.59       82.79       81.99       81.19       80.39       79.58       78.77    
        77.95       77.13       76.29       75.45       74.59       73.72       72.83       71.91       70.97       70.00    
   3  -1000.0     -1000.0     -1000.0     -1000.0       106.0       105.7       105.3       104.9       104.3       103.7    
        103.1       102.4       101.6       100.8       99.86       98.85       97.87       96.91       95.97       95.04    
        94.19       93.34       92.51       91.67       90.85       90.03       89.21       88.40       87.59       86.78    
        85.98       85.18       84.38       83.58       82.78       81.98       81.18       80.38       79.57       78.76    
        77.94       77.12       76.29       75.44       74.59       73.72       72.82       71.91       70.97       70.00    
   4  -1000.0     -1000.0     -1000.0       106.3       106.1       105.7       105.3       104.8       104.3       103.7    
        103.1       102.4       101.6       100.7       99.80       98.79       97.81       96.85       95.91       94.99    
        94.14       93.30       92.47       91.64       90.81       89.99       89.18       88.37       87.56       86.76    
        85.95       85.15       84.35       83.55       82.76       81.96       81.16       80.36       79.55       78.74    
        77.93       77.11       76.27       75.43       74.58       73.71       72.82       71.91       70.97       70.00    
   5  -1000.0     -1000.0       106.6       106.4       106.1       105.7       105.3       104.8       104.3       103.7    
        103.1       102.3       101.5       100.6       99.70       98.69       97.71       96.76       95.83       94.92    
        94.07       93.24       92.41       91.58       90.76       89.94       89.13       88.32       87.52       86.71    
        85.91       85.11       84.32       83.52       82.72       81.93       81.13       80.33       79.53       78.72    
        77.91       77.09       76.26       75.42       74.57       73.70       72.81       71.90       70.97       70.00    
   6  -1000.0       106.8       106.6       106.4       106.1       105.7       105.3       104.8       104.3       103.7    
        103.0       102.2       101.4       100.5       99.57       98.55       97.58       96.63       95.71       94.81    
        93.98       93.15       92.33       91.51       90.69       89.88       89.07       88.26       87.46       86.66    
        85.86       85.06       84.26       83.47       82.68       81.88       81.09       80.29       79.49       78.69    
        77.88       77.06       76.23       75.40       74.55       73.68       72.80       71.89       70.96       70.00    
   7  -1000.0       106.7       106.6       106.4       106.0       105.7       105.3       104.8       104.2       103.6    
        102.9       102.1       101.3       100.3       99.38       98.37       97.40       96.47       95.57       94.69    
        93.87       93.05       92.24       91.42       90.61       89.80       88.99       88.19       87.38       86.58    
        85.79       84.99       84.20       83.41       82.62       81.83       81.04       80.24       79.44       78.64    
        77.84       77.02       76.20       75.37       74.53       73.67       72.79       71.89       70.96       70.00    
   8  -1000.0       106.7       106.6       106.3       106.0       105.7       105.3       104.8       104.2       103.5    
        102.8       101.9       101.1       100.1       99.13       98.12       97.17       96.27       95.40       94.54    
        93.73       92.93       92.13       91.32       90.51       89.71       88.90       88.10       87.30       86.50    
        85.71       84.91       84.12       83.34       82.55       81.76       80.97       80.18       79.39       78.59    
        77.79       76.98       76.17       75.34       74.50       73.64       72.77       71.87       70.95       70.00    
   9  -1000.0       106.6       106.5       106.3       106.0       105.6       105.2       104.7       104.1       103.4    
        102.6       101.7       100.8       99.81       98.81       97.81       96.90       96.03       95.20       94.37    
        93.59       92.80       92.01       91.21       90.41       89.60       88.80       88.00       87.20       86.40    
        85.61       84.82       84.03       83.25       82.47       81.68       80.90       80.12       79.33       78.54    
        77.74       76.94       76.13       75.30       74.47       73.62       72.75       71.86       70.95       70.00    
  10  -1000.0       106.5       106.4       106.2       106.0       105.6       105.2       104.6       104.0       103.3    
        102.4       101.5       100.5       99.42       98.36       97.40       96.56       95.76       94.98       94.19    
        93.44       92.66       91.88       91.09       90.29       89.48       88.68       87.88       87.08       86.29    
        85.50       84.71       83.93       83.15       82.37       81.59       80.82       80.04       79.26       78.47    
        77.68       76.88       76.08       75.26       74.44       73.59       72.73       71.85       70.94       70.00    
  11  -1000.0       106.5       106.4       106.2       105.9       105.5       105.1       104.5       103.9       103.1    
        102.2       101.2       100.1       98.89       97.71       96.86       96.16       95.47       94.76       94.02    
        93.28       92.53       91.75       90.96       90.16       89.36       88.55       87.75       86.96       86.16    
        85.38       84.59       83.81       83.04       82.26       81.49       80.72       79.95       79.17       78.40    
        77.61       76.83       76.03       75.22       74.40       73.56       72.71       71.83       70.93       70.00    
  12  -1000.0       106.4       106.3       106.1       105.8       105.5       105.0       104.5       103.8       103.0    
        102.1       101.0       99.72       98.21       96.60       96.16       95.74       95.20       94.56       93.86    
        93.14       92.39       91.62       90.83       90.03       89.22       88.41       87.61       86.81       86.02    
        85.24       84.46       83.68       82.91       82.14       81.38       80.61       79.85       79.08       78.31    
        77.54       76.76       75.97       75.17       74.36       73.53       72.68       71.82       70.92       70.00    
  13  -1000.0       106.3       106.2       106.1       105.8       105.4       105.0       104.4       103.7       102.9    
        102.0       100.8       99.44       97.51       94.15       95.43       95.43       95.02       94.42       93.74    
        93.03       92.27       91.50       90.70       89.88       89.07       88.26       87.45       86.66       85.87    
        85.09       84.31       83.54       82.77       82.01       81.25       80.50       79.74       78.98       78.22    
        77.46       76.69       75.91       75.12       74.32       73.50       72.66       71.80       70.91       70.00    
  14  -1000.0       106.3       106.2       106.0       105.7       105.4       104.9       104.3       103.7       102.9    
        101.9       100.8       99.56       98.04       96.42       95.97       95.55       95.01       94.37       93.66    
        92.93       92.16       91.37       90.56       89.73       88.90       88.09       87.28       86.48       85.69    
        84.91       84.14       83.38       82.62       81.87       81.12       80.37       79.62       78.88       78.13    
        77.37       76.61       75.85       75.07       74.27       73.46       72.63       71.78       70.91       70.00    
  15  -1000.0       106.2       106.1       105.9       105.7       105.3       104.8       104.3       103.6       102.8    
        101.9       100.9       99.78       98.54       97.35       96.49       95.78       95.09       94.37       93.63    
        92.86       92.06       91.24       90.41       89.57       88.73       87.90       87.09       86.29       85.50    
        84.72       83.96       83.20       82.45       81.70       80.96       80.23       79.49       78.76       78.02    
        77.28       76.53       75.78       75.01       74.23       73.43       72.61       71.77       70.90       70.00    
  16  -1000.0       106.1       106.0       105.9       105.6       105.2       104.8       104.2       103.6       102.8    
        102.0       101.0       99.99       98.90       97.82       96.85       95.99       95.19       94.40       93.60    
        92.79       91.96       91.11       90.26       89.39       88.53       87.70       86.87       86.07       85.29    
        84.51       83.75       83.00       82.26       81.53       80.80       80.08       79.36       78.63       77.91    
        77.19       76.45       75.71       74.95       74.18       73.39       72.58       71.75       70.89       70.00    
  17  -1000.0       106.0       106.0       105.8       105.5       105.2       104.7       104.2       103.5       102.8    
        102.0       101.1       100.1       99.12       98.09       97.07       96.15       95.27       94.43       93.59    
        92.72       91.85       90.96       90.08       89.20       88.32       87.47       86.64       85.83       85.05    
        84.28       83.53       82.79       82.06       81.34       80.62       79.91       79.21       78.50       77.80    
        77.09       76.37       75.64       74.90       74.14       73.37       72.56       71.74       70.88       70.00    
  18  -1000.0       106.0       105.9       105.7       105.4       105.1       104.6       104.1       103.5       102.8    
        102.0       101.1       100.2       99.24       98.23       97.20       96.23       95.32       94.44       93.56    
        92.64       91.72       90.80       89.88       88.97       88.08       87.22       86.38       85.57       84.79    
        84.03       83.28       82.55       81.84       81.13       80.43       79.74       79.05       78.37       77.68    
        76.99       76.29       75.58       74.85       74.11       73.34       72.55       71.73       70.88       70.00    
  19  -1000.0       105.9       105.8       105.6       105.3       105.0       104.6       104.0       103.4       102.7    
        102.0       101.1       100.2       99.28       98.28       97.24       96.26       95.33       94.43       93.53    
        92.54       91.56       90.59       89.64       88.71       87.80       86.93       86.09       85.28       84.50    
        83.74       83.01       82.30       81.60       80.91       80.23       79.56       78.89       78.22       77.56    
        76.88       76.21       75.52       74.81       74.08       73.33       72.55       71.73       70.88       70.00    
  20  -1000.0       105.8       105.7       105.5       105.2       104.9       104.5       103.9       103.3       102.7    
        101.9       101.1       100.2       99.25       98.26       97.22       96.23       95.30       94.42       93.49    
        92.42       91.36       90.34       89.35       88.40       87.47       86.59       85.75       84.95       84.17    
        83.43       82.71       82.01       81.33       80.67       80.01       79.36       78.72       78.08       77.43    
        76.79       76.13       75.47       74.78       74.07       73.33       72.56       71.74       70.89       70.00    
  21  -1000.0       105.7       105.6       105.4       105.1       104.8       104.3       103.8       103.2       102.5    
        101.8       101.0       100.1       99.16       98.16       97.12       96.13       95.23       94.43       93.49    
        92.24       91.09       90.01       88.99       88.02       87.09       86.21       85.37       84.57       83.81    
        83.08       82.38       81.70       81.05       80.41       79.78       79.15       78.54       77.93       77.31    
        76.69       76.07       75.43       74.77       74.08       73.36       72.59       71.78       70.91       70.00    
  22  -1000.0       105.5       105.4       105.3       105.0       104.6       104.2       103.6       103.0       102.4    
        101.6       100.8       99.93       98.99       98.00       96.94       95.95       95.03       94.22       93.27    
        91.94       90.71       89.59       88.54       87.56       86.64       85.76       84.93       84.14       83.40    
        82.69       82.01       81.37       80.74       80.13       79.53       78.94       78.35       77.77       77.19    
        76.61       76.02       75.41       74.78       74.12       73.41       72.66       71.84       70.95       70.00    
  23  -1000.0       105.4       105.3       105.1       104.8       104.4       104.0       103.5       102.8       102.2    
        101.4       100.6       99.71       98.77       97.76       96.69       95.68       94.71       93.79       92.83    
        91.47       90.20       89.03       87.98       87.02       86.13       85.25       84.41       83.64       82.92    
        82.25       81.61       80.99       80.40       79.82       79.26       78.71       78.16       77.62       77.08    
        76.53       75.98       75.41       74.81       74.19       73.51       72.78       71.95       71.03       70.00    
  24  -1000.0       105.3       105.2       105.0       104.6       104.3       103.8       103.2       102.6       101.9    
        101.2       100.3       99.44       98.48       97.47       96.38       95.34       94.34       93.37       92.41    
        90.88       89.51       88.31       87.26       86.35       85.59       84.65       83.81       83.05       82.37    
        81.74       81.14       80.58       80.03       79.50       78.98       78.47       77.96       77.46       76.96    
        76.46       75.95       75.43       74.88       74.30       73.67       72.97       72.15       71.17       70.00    
  25  -1000.0       105.2       105.0       104.8       104.5       104.0       103.5       103.0       102.3       101.6    
        100.8       100.0       99.10       98.14       97.11       96.01       94.95       93.92       92.93       91.97    
        90.05       88.60       87.37       86.32       85.49       85.18       83.92       83.06       82.36       81.74    
        81.16       80.63       80.11       79.62       79.14       78.67       78.21       77.76       77.31       76.86    
        76.41       75.95       75.48       74.99       74.47       73.91       73.27       72.49       71.46       70.00    
  26  -1000.0       105.6       105.5       105.3       105.0       104.6       104.1       103.6       102.9       102.3    
        101.5       100.7       99.79       98.83       97.80       96.70       95.63       94.59       93.59       92.62    
        91.08       89.72       88.52       87.46       86.55       85.78       84.84       83.98       83.22       82.53    
        81.89       81.28       80.71       80.15       79.61       79.08       78.57       78.06       77.55       77.04    
        76.53       76.01       75.48       74.92       74.34       73.70       72.99       72.17       71.18       70.00    
  27  -1000.0       106.0       105.9       105.7       105.4       105.1       104.6       104.1       103.5       102.9    
        102.1       101.3       100.4       99.47       98.44       97.33       96.26       95.22       94.20       93.22    
        91.89       90.63       89.48       88.42       87.45       86.54       85.64       84.78       83.99       83.25    
        82.55       81.89       81.26       80.65       80.06       79.48       78.91       78.35       77.79       77.23    
        76.67       76.10       75.51       74.90       74.26       73.58       72.82       71.98       71.04       70.00    
  28  -1000.0       106.4       106.3       106.2       105.9       105.6       105.1       104.6       104.1       103.4    
        102.7       101.9       101.0       100.1       99.03       97.92       96.84       95.79       94.77       93.78    
        92.56       91.39       90.27       89.22       88.22       87.27       86.35       85.48       84.66       83.89    
        83.15       82.45       81.77       81.12       80.48       79.85       79.24       78.63       78.03       77.43    
        76.82       76.20       75.57       74.92       74.23       73.51       72.73       71.89       70.98       70.00    
  29  -1000.0       106.8       106.7       106.6       106.3       106.0       105.6       105.1       104.5       103.9    
        103.2       102.4       101.5       100.6       99.57       98.46       97.38       96.33       95.30       94.29    
        93.15       92.03       90.95       89.90       88.89       87.92       86.99       86.11       85.26       84.46    
        83.69       82.95       82.24       81.54       80.87       80.20       79.55       78.91       78.26       77.62    
        76.97       76.32       75.65       74.96       74.24       73.49       72.69       71.84       70.94       70.00    
  30  -1000.0       107.2       107.1       107.0       106.7       106.4       106.0       105.5       105.0       104.4    
        103.7       102.9       102.0       101.1       100.1       98.96       97.88       96.82       95.78       94.77    
        93.67       92.59       91.53       90.50       89.48       88.50       87.56       86.66       85.80       84.97    
        84.18       83.41       82.66       81.94       81.23       80.53       79.85       79.17       78.49       77.82    
        77.14       76.45       75.74       75.02       74.27       73.49       72.68       71.83       70.93       70.00    
  31  -1000.0       107.6       107.5       107.3       107.1       106.8       106.4       106.0       105.4       104.8    
        104.1       103.3       102.5       101.5       100.5       99.41       98.33       97.27       96.23       95.20    
        94.14       93.09       92.05       91.02       90.01       89.02       88.07       87.16       86.28       85.44    
        84.62       83.83       83.06       82.30       81.57       80.84       80.13       79.42       78.72       78.01    
        77.30       76.58       75.84       75.09       74.32       73.52       72.69       71.83       70.93       70.00    
  32  -1000.0       107.9       107.8       107.7       107.5       107.2       106.8       106.3       105.8       105.2    
        104.5       103.7       102.9       101.9       100.9       99.83       98.74       97.68       96.63       95.61    
        94.57       93.53       92.50       91.48       90.48       89.49       88.53       87.61       86.72       85.86    
        85.02       84.21       83.42       82.64       81.89       81.14       80.40       79.67       78.93       78.20    
        77.46       76.71       75.95       75.18       74.38       73.57       72.72       71.85       70.94       70.00    
  33  -1000.0       108.2       108.1       108.0       107.8       107.5       107.1       106.7       106.1       105.5    
        104.9       104.1       103.2       102.3       101.3       100.2       99.12       98.05       97.01       95.98    
        94.95       93.93       92.91       91.90       90.89       89.90       88.95       88.02       87.12       86.24    
        85.39       84.56       83.76       82.96       82.19       81.42       80.66       79.90       79.14       78.38    
        77.62       76.85       76.07       75.27       74.46       73.62       72.76       71.87       70.95       70.00    
  34  -1000.0       108.5       108.4       108.3       108.1       107.8       107.4       107.0       106.4       105.9    
        105.2       104.4       103.6       102.7       101.6       100.5       99.46       98.40       97.35       96.32    
        95.30       94.29       93.28       92.27       91.27       90.28       89.32       88.39       87.48       86.59    
        85.73       84.89       84.07       83.26       82.47       81.68       80.90       80.12       79.34       78.56    
        77.77       76.98       76.18       75.36       74.53       73.68       72.80       71.90       70.97       70.00    
  35  -1000.0       108.8       108.7       108.5       108.3       108.0       107.7       107.2       106.7       106.1    
        105.5       104.7       103.9       103.0       102.0       100.9       99.78       98.71       97.66       96.62    
        95.62       94.62       93.61       92.61       91.61       90.62       89.66       88.72       87.81       86.92    
        86.05       85.20       84.36       83.54       82.73       81.92       81.12       80.33       79.53       78.73    
        77.92       77.11       76.29       75.46       74.61       73.74       72.85       71.93       70.98       70.00    
  36  -1000.0       109.0       108.9       108.8       108.6       108.3       107.9       107.5       107.0       106.4    
        105.7       105.0       104.1       103.2       102.2       101.1       100.1       98.99       97.94       96.91    
        95.91       94.91       93.91       92.92       91.92       90.93       89.97       89.03       88.11       87.21    
        86.34       85.48       84.63       83.80       82.97       82.15       81.33       80.52       79.70       78.89    
        78.07       77.24       76.40       75.55       74.68       73.80       72.89       71.96       71.00       70.00    
  37  -1000.0       109.2       109.1       109.0       108.8       108.5       108.1       107.7       107.2       106.6    
        106.0       105.2       104.4       103.5       102.5       101.4       100.3       99.25       98.20       97.16    
        96.17       95.18       94.18       93.19       92.20       91.21       90.25       89.31       88.39       87.49    
        86.61       85.74       84.88       84.04       83.20       82.36       81.53       80.70       79.87       79.04    
        78.20       77.36       76.50       75.64       74.76       73.86       72.94       71.99       71.01       70.00    
  38  -1000.0       109.4       109.3       109.2       109.0       108.7       108.3       107.9       107.4       106.8    
        106.2       105.4       104.6       103.7       102.7       101.6       100.5       99.48       98.43       97.39    
        96.40       95.42       94.43       93.44       92.45       91.46       90.50       89.56       88.64       87.74    
        86.85       85.98       85.11       84.25       83.40       82.55       81.71       80.87       80.02       79.18    
        78.33       77.47       76.60       75.72       74.83       73.91       72.98       72.02       71.03       70.00    
  39  -1000.0       109.6       109.5       109.3       109.1       108.9       108.5       108.1       107.6       107.0    
        106.3       105.6       104.8       103.9       102.9       101.8       100.7       99.68       98.64       97.60    
        96.62       95.63       94.65       93.66       92.67       91.69       90.73       89.79       88.87       87.97    
        87.08       86.19       85.32       84.45       83.59       82.73       81.87       81.02       80.16       79.31    
        78.44       77.57       76.69       75.80       74.89       73.97       73.02       72.05       71.04       70.00    
  40  -1000.0       109.7       109.6       109.5       109.3       109.0       108.6       108.2       107.7       107.1    
        106.5       105.8       104.9       104.0       103.1       102.0       100.9       99.86       98.82       97.78    
        96.80       95.82       94.84       93.86       92.88       91.90       90.94       90.01       89.09       88.18    
        87.28       86.39       85.51       84.63       83.76       82.89       82.02       81.16       80.29       79.42    
        78.55       77.67       76.78       75.87       74.95       74.02       73.06       72.07       71.06       70.00    
  41  -1000.0       109.8       109.8       109.6       109.4       109.1       108.8       108.3       107.8       107.3    
        106.6       105.9       105.1       104.2       103.2       102.1       101.1       100.0       98.98       97.94    
        96.97       95.99       95.02       94.04       93.06       92.09       91.14       90.20       89.28       88.36    
        87.46       86.56       85.67       84.79       83.91       83.03       82.16       81.29       80.41       79.53    
        78.65       77.76       76.85       75.94       75.01       74.06       73.09       72.10       71.07       70.00    
  42  -1000.0       110.0       109.9       109.7       109.5       109.2       108.9       108.4       107.9       107.4    
        106.7       106.0       105.2       104.3       103.3       102.3       101.2       100.2       99.12       98.09    
        97.11       96.14       95.17       94.20       93.22       92.26       91.31       90.37       89.44       88.53    
        87.62       86.71       85.82       84.93       84.04       83.16       82.28       81.40       80.51       79.63    
        78.73       77.83       76.92       76.00       75.06       74.10       73.12       72.12       71.08       70.00    
  43  -1000.0       110.1       110.0       109.8       109.6       109.3       108.9       108.5       108.0       107.5    
        106.8       106.1       105.3       104.4       103.4       102.4       101.3       100.3       99.24       98.21    
        97.24       96.27       95.30       94.33       93.36       92.40       91.45       90.52       89.59       88.67    
        87.75       86.85       85.95       85.05       84.16       83.27       82.38       81.49       80.60       79.71    
        78.81       77.90       76.98       76.05       75.10       74.14       73.15       72.14       71.09       70.00    
  44  -1000.0       110.2       110.1       109.9       109.6       109.3       109.0       108.6       108.1       107.5    
        106.9       106.2       105.4       104.5       103.5       102.5       101.4       100.4       99.34       98.31    
        97.34       96.38       95.41       94.45       93.48       92.53       91.58       90.64       89.71       88.79    
        87.87       86.96       86.06       85.16       84.26       83.37       82.47       81.58       80.68       79.78    
        78.87       77.96       77.03       76.09       75.14       74.17       73.18       72.15       71.10       70.00    
  45  -1000.0       110.3       110.2       110.0       109.7       109.3       109.0       108.6       108.1       107.5    
        106.9       106.2       105.4       104.6       103.6       102.5       101.5       100.5       99.42       98.39    
        97.43       96.47       95.50       94.54       93.58       92.63       91.68       90.74       89.81       88.89    
        87.97       87.06       86.15       85.25       84.35       83.45       82.55       81.65       80.74       79.84    
        78.93       78.01       77.08       76.13       75.17       74.20       73.20       72.17       71.10       70.00    
  46  -1000.0     -1000.0       110.1       110.0       109.7       109.4       109.0       108.6       108.1       107.6    
        106.9       106.2       105.5       104.6       103.6       102.6       101.6       100.5       99.49       98.46    
        97.50       96.54       95.58       94.62       93.66       92.71       91.76       90.82       89.89       88.97    
        88.05       87.13       86.22       85.32       84.41       83.51       82.61       81.70       80.80       79.89    
        78.97       78.04       77.11       76.16       75.20       74.22       73.21       72.18       71.11       70.00    
  47  -1000.0     -1000.0     -1000.0       109.9       109.7       109.4       109.0       108.5       108.1       107.6    
        107.0       106.3       105.5       104.6       103.7       102.6       101.6       100.6       99.53       98.51    
        97.55       96.59       95.63       94.67       93.72       92.77       91.82       90.88       89.95       89.03    
        88.10       87.19       86.28       85.37       84.46       83.56       82.65       81.74       80.83       79.92    
        79.00       78.07       77.14       76.18       75.22       74.23       73.22       72.19       71.11       70.00    
  48  -1000.0     -1000.0     -1000.0     -1000.0       109.6       109.4       109.0       108.6       108.0       107.5    
        106.9       106.3       105.5       104.7       103.7       102.7       101.6       100.6       99.57       98.54    
        97.58       96.62       95.67       94.71       93.76       92.81       91.86       90.92       89.99       89.07    
        88.14       87.23       86.31       85.40       84.49       83.59       82.68       81.77       80.86       79.94    
        79.02       78.09       77.15       76.20       75.23       74.24       73.23       72.19       71.12       70.00    
  49  -1000.0     -1000.0     -1000.0     -1000.0     -1000.0       109.3       109.0       108.6       108.1       107.5    
        106.9       106.3       105.5       104.7       103.7       102.7       101.6       100.6       99.58       98.56    
        97.60       96.64       95.68       94.73       93.78       92.83       91.88       90.94       90.01       89.09    
        88.16       87.25       86.33       85.42       84.51       83.60       82.69       81.78       80.87       79.96    
        79.03       78.10       77.16       76.21       75.24       74.25       73.24       72.19       71.12       70.00    
  50  -1000.0     -1000.0     -1000.0     -1000.0     -1000.0     -1000.0     -1000.0     -1000.0     -1000.0     -1000.0    
      -1000.0     -1000.0     -1000.0     -1000.0     -1000.0     -1000.0     -1000.0     -1000.0     -1000.0     -1000.0    
      -1000.0     -1000.0     -1000.0     -1000.0     -1000.0     -1000.0     -1000.0     -1000.0     -1000.0     -1000.0    
      -1000.0     -1000.0     -1000.0     -1000.0     -1000.0     -1000.0     -1000.0     -1000.0     -1000.0     -1000.0    
      -1000.0     -1000.0     -1000.0     -1000.0     -1000.0     -1000.0     -1000.0     -1000.0     -1000.0       70.00    
1
              HEAD IN LAYER   2 AT END OF TIME STEP   1 IN STRESS PERIOD    1
  ---------------------------------------------------------------------------

            1           2           3           4           5           6           7           8           9          10
           11          12          13          14          15          16          17          18          19          20
           21          22          23          24          25          26          27          28          29          30
           31          32          33          34          35          36          37          38          39          40
           41          42          43          44          45          46          47          48          49          50
 ........................................................................................................................
   1  -1000.0     -1000.0     -1000.0     -1000.0     -1000.0     -1000.0     -1000.0     -1000.0     -1000.0     -1000.0    
      -1000.0     -1000.0     -1000.0     -1000.0     -1000.0     -1000.0     -1000.0     -1000.0     -1000.0     -1000.0    
      -1000.0     -1000.0     -1000.0     -1000.0     -1000.0     -1000.0     -1000.0     -1000.0     -1000.0     -1000.0    
      -1000.0     -1000.0     -1000.0     -1000.0     -1000.0     -1000.0     -1000.0     -1000.0     -1000.0     -1000.0    
      -1000.0     -1000.0     -1000.0     -1000.0     -1000.0     -1000.0     -1000.0     -1000.0     -1000.0       70.00    
   2  -1000.0     -1000.0     -1000.0     -1000.0     -1000.0     -1000.0     -1000.0       104.9       104.3       103.7    
        103.1       102.4       101.7       100.8       99.89       98.89       97.90       96.94       95.99       95.07    
        94.14       93.24       92.35       91.47       90.61       89.75       88.91       88.07       87.24       86.41    
        85.58       84.77       83.95       83.14       82.32       81.52       80.71       79.90       79.09       78.28    
        77.48       76.66       75.85       75.03       74.21       73.38       72.54       71.70       70.85       70.00    
   3  -1000.0     -1000.0     -1000.0     -1000.0     -1000.0     -1000.0       105.3       104.9       104.3       103.7    
        103.1       102.4       101.6       100.8       99.86       98.85       97.87       96.91       95.97       95.04    
        94.12       93.22       92.33       91.46       90.59       89.74       88.90       88.06       87.22       86.40    
        85.57       84.75       83.94       83.13       82.31       81.51       80.70       79.89       79.09       78.28    
        77.47       76.66       75.84       75.03       74.20       73.37       72.54       71.70       70.85       70.00    
   4  -1000.0     -1000.0     -1000.0     -1000.0     -1000.0       105.7       105.3       104.8       104.3       103.7    
        103.1       102.4       101.6       100.7       99.80       98.79       97.81       96.85       95.91       94.99    
        94.07       93.17       92.29       91.42       90.56       89.71       88.87       88.03       87.20       86.37    
        85.55       84.73       83.92       83.11       82.30       81.49       80.68       79.88       79.07       78.26    
        77.46       76.65       75.83       75.02       74.19       73.37       72.53       71.69       70.85       70.00    
   5  -1000.0     -1000.0     -1000.0     -1000.0       106.1       105.7       105.3       104.8       104.3       103.7    
        103.1       102.3       101.5       100.6       99.70       98.69       97.71       96.76       95.83       94.92    
        94.01       93.11       92.24       91.37       90.52       89.67       88.83       87.99       87.16       86.34    
        85.52       84.70       83.89       83.08       82.27       81.46       80.65       79.85       79.05       78.24    
        77.44       76.63       75.82       75.00       74.18       73.36       72.53       71.69       70.85       70.00    
   6  -1000.0     -1000.0     -1000.0       106.4       106.1       105.7       105.3       104.8       104.3       103.7    
        103.0       102.2       101.4       100.5       99.57       98.55       97.58       96.63       95.71       94.81    
        93.91       93.03       92.16       91.31       90.46       89.61       88.78       87.94       87.12       86.29    
        85.47       84.66       83.85       83.04       82.23       81.42       80.62       79.82       79.01       78.21    
        77.41       76.60       75.79       74.98       74.17       73.34       72.52       71.68       70.84       70.00    
   7  -1000.0     -1000.0       106.6       106.4       106.0       105.7       105.3       104.8       104.2       103.6    
        102.9       102.1       101.3       100.3       99.38       98.37       97.40       96.47       95.57       94.69    
        93.80       92.94       92.08       91.23       90.38       89.55       88.71       87.88       87.06       86.24    
        85.42       84.61       83.79       82.99       82.18       81.38       80.57       79.77       78.97       78.17    
        77.37       76.57       75.77       74.96       74.15       73.33       72.50       71.67       70.84       70.00    
   8  -1000.0       106.7       106.6       106.3       106.0       105.7       105.3       104.8       104.2       103.5    
        102.8       101.9       101.1       100.1       99.13       98.12       97.17       96.27       95.40       94.54    
        93.68       92.82       91.98       91.14       90.30       89.47       88.64       87.81       86.99       86.17    
        85.35       84.54       83.73       82.93       82.12       81.32       80.52       79.72       78.93       78.13    
        77.33       76.53       75.73       74.93       74.12       73.31       72.49       71.66       70.83       70.00    
   9  -1000.0       106.6       106.5       106.3       106.0       105.6       105.2       104.7       104.1       103.4    
        102.6       101.7       100.8       99.81       98.81       97.81       96.90       96.03       95.20       94.37    
        93.53       92.70       91.87       91.04       90.21       89.38       88.56       87.73       86.91       86.09    
        85.28       84.47       83.66       82.86       82.05       81.25       80.46       79.66       78.87       78.08    
        77.28       76.49       75.70       74.90       74.09       73.29       72.47       71.65       70.83       70.00    
  10  -1000.0       106.5       106.4       106.2       106.0       105.6       105.2       104.6       104.0       103.3    
        102.4       101.5       100.5       99.42       98.36       97.40       96.56       95.76       94.98       94.19    
        93.38       92.57       91.75       90.93       90.11       89.29       88.46       87.64       86.82       86.01    
        85.20       84.39       83.58       82.78       81.98       81.18       80.39       79.59       78.80       78.02    
        77.23       76.44       75.65       74.86       74.06       73.26       72.45       71.64       70.82       70.00    
  11  -1000.0       106.5       106.4       106.2       105.9       105.5       105.1       104.5       103.9       103.1    
        102.2       101.2       100.1       98.89       97.71       96.86       96.16       95.47       94.76       94.02    
        93.24       92.44       91.64       90.82       90.00       89.19       88.36       87.55       86.73       85.91    
        85.10       84.29       83.49       82.69       81.89       81.09       80.30       79.52       78.73       77.95    
        77.17       76.38       75.60       74.82       74.03       73.23       72.43       71.63       70.81       70.00    
  12  -1000.0       106.4       106.3       106.1       105.8       105.5       105.0       104.5       103.8       103.0    
        102.1       101.0       99.72       98.21       96.60       96.16       95.74       95.20       94.56       93.86    
        93.10       92.32       91.52       90.71       89.90       89.08       88.26       87.44       86.63       85.81    
        85.00       84.19       83.39       82.59       81.79       81.00       80.21       79.43       78.65       77.87    
        77.10       76.32       75.54       74.77       73.99       73.20       72.41       71.61       70.81       70.00    
  13  -1000.0       106.3       106.2       106.1       105.8       105.4       105.0       104.4       103.7       102.9    
        102.0       100.8       99.44       97.51       94.16       95.43       95.43       95.02       94.42       93.74    
        92.99       92.21       91.41       90.60       89.79       88.97       88.15       87.33       86.51       85.70    
        84.89       84.08       83.28       82.48       81.69       80.90       80.11       79.33       78.56       77.78    
        77.02       76.25       75.48       74.71       73.94       73.17       72.38       71.59       70.80       70.00    
  14  -1000.0       106.3       106.2       106.0       105.7       105.4       104.9       104.3       103.7       102.9    
        101.9       100.8       99.56       98.04       96.42       95.97       95.55       95.01       94.37       93.66    
        92.90       92.11       91.31       90.50       89.68       88.86       88.03       87.21       86.40       85.58    
        84.77       83.96       83.16       82.36       81.57       80.78       80.00       79.22       78.45       77.69    
        76.93       76.17       75.42       74.66       73.90       73.13       72.36       71.58       70.79       70.00    
  15  -1000.0       106.2       106.1       105.9       105.7       105.3       104.8       104.3       103.6       102.8    
        101.9       100.9       99.78       98.54       97.35       96.49       95.78       95.09       94.37       93.63    
        92.84       92.03       91.22       90.39       89.57       88.74       87.91       87.09       86.27       85.46    
        84.64       83.84       83.03       82.24       81.44       80.66       79.88       79.11       78.34       77.59    
        76.84       76.09       75.35       74.60       73.85       73.09       72.33       71.56       70.78       70.00    
  16  -1000.0       106.1       106.0       105.9       105.6       105.2       104.8       104.2       103.6       102.8    
        102.0       101.0       99.99       98.90       97.82       96.85       95.99       95.19       94.40       93.60    
        92.78       91.95       91.12       90.29       89.45       88.62       87.79       86.96       86.14       85.32    
        84.51       83.70       82.90       82.10       81.31       80.52       79.75       78.98       78.22       77.47    
        76.74       76.00       75.27       74.54       73.80       73.05       72.30       71.54       70.77       70.00    
  17  -1000.0       106.0       106.0       105.8       105.5       105.2       104.7       104.2       103.5       102.8    
        102.0       101.1       100.1       99.12       98.09       97.07       96.15       95.27       94.43       93.59    
        92.73       91.88       91.03       90.18       89.33       88.49       87.66       86.83       86.00       85.18    
        84.37       83.57       82.76       81.96       81.17       80.38       79.61       78.84       78.09       77.35    
        76.63       75.91       75.20       74.48       73.75       73.02       72.28       71.52       70.76       70.00    
  18  -1000.0       106.0       105.9       105.7       105.4       105.1       104.6       104.1       103.5       102.8    
        102.0       101.1       100.2       99.24       98.23       97.20       96.23       95.32       94.44       93.56    
        92.68       91.80       90.93       90.06       89.21       88.36       87.52       86.69       85.86       85.04    
        84.23       83.42       82.62       81.82       81.03       80.24       79.46       78.70       77.95       77.23    
        76.52       75.82       75.12       74.42       73.71       72.99       72.25       71.51       70.76       70.00    
  19  -1000.0       105.9       105.8       105.6       105.3       105.0       104.6       104.0       103.4       102.7    
        102.0       101.1       100.2       99.28       98.28       97.24       96.26       95.33       94.43       93.53    
        92.61       91.71       90.82       89.94       89.07       88.22       87.38       86.54       85.72       84.90    
        84.09       83.28       82.48       81.68       80.88       80.09       79.31       78.55       77.81       77.10    
        76.41       75.73       75.05       74.37       73.67       72.96       72.24       71.50       70.75       70.00    
  20  -1000.0       105.8       105.7       105.5       105.2       104.9       104.5       103.9       103.3       102.7    
        101.9       101.1       100.2       99.25       98.26       97.22       96.23       95.30       94.42       93.49    
        92.53       91.60       90.69       89.80       88.93       88.08       87.23       86.40       85.57       84.76    
        83.95       83.14       82.34       81.54       80.75       79.95       79.17       78.40       77.66       76.97    
        76.30       75.65       74.99       74.32       73.64       72.94       72.23       71.50       70.75       70.00    
  21  -1000.0       105.7       105.6       105.4       105.1       104.8       104.3       103.8       103.2       102.5    
        101.8       101.0       100.1       99.16       98.16       97.12       96.13       95.23       94.43       93.49    
        92.43       91.47       90.55       89.66       88.79       87.93       87.09       86.26       85.43       84.62    
        83.82       83.02       82.22       81.42       80.63       79.83       79.04       78.27       77.52       76.85    
        76.22       75.59       74.95       74.30       73.63       72.94       72.23       71.50       70.75       70.00    
  22  -1000.0       105.5       105.4       105.3       105.0       104.6       104.2       103.6       103.0       102.4    
        101.6       100.8       99.93       98.99       98.00       96.94       95.95       95.03       94.22       93.27    
        92.24       91.30       90.40       89.52       88.65       87.80       86.96       86.13       85.31       84.50    
        83.70       82.91       82.11       81.33       80.54       79.75       78.96       78.17       77.42       76.78    
        76.17       75.56       74.93       74.29       73.63       72.95       72.24       71.51       70.76       70.00    
  23  -1000.0       105.4       105.3       105.1       104.8       104.4       104.0       103.5       102.8       102.2    
        101.4       100.6       99.71       98.77       97.76       96.69       95.68       94.71       93.79       92.83    
        91.97       91.11       90.24       89.39       88.53       87.69       86.85       86.03       85.21       84.41    
        83.61       82.82       82.04       81.26       80.48       79.71       78.93       78.17       77.45       76.80    
        76.18       75.57       74.95       74.31       73.65       72.97       72.26       71.53       70.77       70.00    
  24  -1000.0       105.3       105.2       105.0       104.6       104.3       103.8       103.2       102.6       101.9    
        101.2       100.3       99.44       98.48       97.47       96.38       95.34       94.34       93.37       92.41    
        91.73       90.96       90.14       89.30       88.47       87.63       86.80       85.97       85.16       84.36    
        83.57       82.79       82.01       81.25       80.48       79.72       78.97       78.23       77.52       76.87    
        76.23       75.61       74.99       74.35       73.69       73.01       72.30       71.56       70.79       70.00    
  25  -1000.0       105.2       105.0       104.8       104.5       104.0       103.5       103.0       102.3       101.6    
        100.8       100.0       99.10       98.14       97.11       96.01       94.95       93.92       92.93       91.97    
        91.62       90.94       90.15       89.32       88.49       87.67       86.83       86.00       85.18       84.38    
        83.60       82.82       82.05       81.29       80.53       79.79       79.05       78.33       77.63       76.96    
        76.32       75.68       75.04       74.40       73.73       73.04       72.33       71.58       70.80       70.00    
  26  -1000.0       105.6       105.5       105.3       105.0       104.6       104.1       103.6       102.9       102.3    
        101.5       100.7       99.79       98.83       97.80       96.70       95.63       94.59       93.59       92.62    
        91.93       91.17       90.35       89.52       88.67       87.84       86.99       86.16       85.34       84.53    
        83.74       82.96       82.19       81.43       80.67       79.92       79.19       78.47       77.77       77.09    
        76.43       75.77       75.12       74.45       73.77       73.07       72.34       71.59       70.80       70.00    
  27  -1000.0       106.0       105.9       105.7       105.4       105.1       104.6       104.1       103.5       102.9    
        102.1       101.3       100.4       99.47       98.44       97.33       96.26       95.22       94.20       93.22    
        92.38       91.54       90.68       89.81       88.95       88.09       87.24       86.40       85.57       84.76    
        83.96       83.17       82.39       81.62       80.86       80.11       79.37       78.64       77.93       77.24    
        76.55       75.88       75.20       74.51       73.81       73.09       72.35       71.59       70.80       70.00    
  28  -1000.0       106.4       106.3       106.2       105.9       105.6       105.1       104.6       104.1       103.4    
        102.7       101.9       101.0       100.1       99.03       97.92       96.84       95.79       94.77       93.78    
        92.86       91.95       91.06       90.16       89.28       88.41       87.54       86.69       85.85       85.02    
        84.21       83.41       82.62       81.84       81.07       80.31       79.56       78.83       78.11       77.39    
        76.69       75.99       75.28       74.58       73.86       73.12       72.37       71.59       70.80       70.00    
  29  -1000.0       106.8       106.7       106.6       106.3       106.0       105.6       105.1       104.5       103.9    
        103.2       102.4       101.5       100.6       99.57       98.46       97.38       96.33       95.30       94.29    
        93.32       92.38       91.45       90.54       89.63       88.74       87.86       87.00       86.14       85.30    
        84.48       83.67       82.87       82.08       81.30       80.53       79.77       79.02       78.28       77.55    
        76.83       76.10       75.38       74.65       73.91       73.16       72.39       71.60       70.81       70.00    
  30  -1000.0       107.2       107.1       107.0       106.7       106.4       106.0       105.5       105.0       104.4    
        103.7       102.9       102.0       101.1       100.1       98.96       97.88       96.82       95.78       94.77    
        93.77       92.80       91.85       90.91       89.99       89.08       88.19       87.31       86.45       85.60    
        84.76       83.93       83.12       82.32       81.53       80.75       79.97       79.21       78.46       77.71    
        76.96       76.22       75.48       74.73       73.97       73.20       72.41       71.62       70.81       70.00    
  31  -1000.0       107.6       107.5       107.3       107.1       106.8       106.4       106.0       105.4       104.8    
        104.1       103.3       102.5       101.5       100.5       99.41       98.33       97.27       96.23       95.20    
        94.19       93.20       92.23       91.28       90.34       89.42       88.51       87.62       86.75       85.88    
        85.03       84.20       83.37       82.56       81.76       80.96       80.18       79.40       78.63       77.86    
        77.10       76.34       75.57       74.81       74.03       73.24       72.45       71.64       70.82       70.00    
  32  -1000.0       107.9       107.8       107.7       107.5       107.2       106.8       106.3       105.8       105.2    
        104.5       103.7       102.9       101.9       100.9       99.83       98.74       97.68       96.63       95.61    
        94.58       93.58       92.59       91.63       90.68       89.75       88.83       87.93       87.04       86.16    
        85.30       84.45       83.62       82.79       81.98       81.17       80.37       79.58       78.80       78.01    
        77.24       76.46       75.67       74.89       74.09       73.29       72.48       71.66       70.83       70.00    
  33  -1000.0       108.2       108.1       108.0       107.8       107.5       107.1       106.7       106.1       105.5    
        104.9       104.1       103.2       102.3       101.3       100.2       99.12       98.05       97.01       95.98    
        94.94       93.93       92.94       91.96       91.00       90.06       89.13       88.22       87.32       86.43    
        85.56       84.70       83.86       83.02       82.19       81.37       80.56       79.76       78.96       78.16    
        77.37       76.57       75.77       74.97       74.16       73.34       72.52       71.69       70.85       70.00    
  34  -1000.0       108.5       108.4       108.3       108.1       107.8       107.4       107.0       106.4       105.9    
        105.2       104.4       103.6       102.7       101.6       100.5       99.46       98.40       97.35       96.31    
        95.27       94.25       93.25       92.27       91.30       90.35       89.41       88.49       87.58       86.69    
        85.81       84.94       84.08       83.24       82.40       81.57       80.74       79.93       79.11       78.30    
        77.49       76.68       75.87       75.05       74.23       73.39       72.56       71.71       70.86       70.00    
  35  -1000.0       108.8       108.7       108.5       108.3       108.0       107.7       107.2       106.7       106.1    
        105.5       104.7       103.9       103.0       101.9       100.9       99.77       98.71       97.66       96.62    
        95.58       94.55       93.55       92.56       91.58       90.62       89.68       88.75       87.83       86.93    
        86.04       85.16       84.30       83.44       82.59       81.75       80.92       80.09       79.26       78.43    
        77.61       76.79       75.96       75.13       74.29       73.45       72.59       71.74       70.87       70.00    
  36  -1000.0       109.0       108.9       108.8       108.6       108.3       107.9       107.5       107.0       106.4    
        105.7       105.0       104.1       103.2       102.2       101.1       100.1       98.99       97.94       96.91    
        95.86       94.83       93.82       92.82       91.84       90.88       89.92       88.99       88.06       87.16    
        86.26       85.37       84.50       83.63       82.77       81.92       81.08       80.23       79.40       78.56    
        77.72       76.89       76.05       75.20       74.35       73.49       72.63       71.76       70.88       70.00    
  37  -1000.0       109.2       109.1       109.0       108.8       108.5       108.1       107.7       107.2       106.6    
        106.0       105.2       104.4       103.5       102.5       101.4       100.3       99.25       98.20       97.16    
        96.11       95.08       94.06       93.07       92.08       91.11       90.15       89.21       88.28       87.37    
        86.46       85.57       84.69       83.81       82.94       82.08       81.23       80.37       79.53       78.68    
        77.83       76.98       76.13       75.27       74.41       73.54       72.67       71.78       70.89       70.00    
  38  -1000.0       109.4       109.3       109.2       109.0       108.7       108.3       107.9       107.4       106.8    
        106.2       105.4       104.6       103.7       102.7       101.6       100.5       99.48       98.43       97.39    
        96.34       95.31       94.29       93.29       92.30       91.32       90.36       89.42       88.48       87.56    
        86.65       85.75       84.86       83.98       83.10       82.23       81.37       80.50       79.65       78.79    
        77.93       77.07       76.21       75.34       74.46       73.59       72.70       71.81       70.90       70.00    
  39  -1000.0       109.6       109.5       109.3       109.1       108.9       108.5       108.1       107.6       107.0    
        106.3       105.6       104.8       103.9       102.9       101.8       100.7       99.68       98.64       97.60    
        96.55       95.51       94.49       93.49       92.50       91.52       90.56       89.61       88.67       87.74    
        86.82       85.92       85.02       84.13       83.25       82.37       81.49       80.62       79.76       78.89    
        78.02       77.15       76.28       75.40       74.52       73.63       72.73       71.83       70.92       70.00    
  40  -1000.0       109.7       109.6       109.5       109.3       109.0       108.6       108.2       107.7       107.1    
        106.5       105.8       104.9       104.0       103.1       102.0       100.9       99.86       98.82       97.78    
        96.73       95.70       94.68       93.67       92.68       91.70       90.73       89.78       88.83       87.90    
        86.98       86.07       85.17       84.27       83.38       82.49       81.61       80.73       79.86       78.98    
        78.10       77.22       76.34       75.46       74.56       73.66       72.76       71.85       70.92       70.00    
  41  -1000.0       109.8       109.8       109.6       109.4       109.1       108.8       108.3       107.8       107.3    
        106.6       105.9       105.1       104.2       103.2       102.1       101.1       100.0       98.98       97.94    
        96.89       95.86       94.84       93.83       92.84       91.86       90.89       89.93       88.98       88.05    
        87.12       86.21       85.30       84.39       83.50       82.61       81.72       80.83       79.95       79.06    
        78.18       77.29       76.40       75.51       74.61       73.70       72.78       71.86       70.93       70.00    
  42  -1000.0       110.0       109.9       109.7       109.5       109.2       108.9       108.4       107.9       107.4    
        106.7       106.0       105.2       104.3       103.3       102.3       101.2       100.2       99.12       98.09    
        97.04       96.00       94.98       93.98       92.98       92.00       91.03       90.07       89.12       88.18    
        87.25       86.33       85.41       84.51       83.60       82.70       81.81       80.92       80.03       79.14    
        78.25       77.35       76.46       75.55       74.65       73.73       72.81       71.88       70.94       70.00    
  43  -1000.0       110.1       110.0       109.8       109.6       109.3       108.9       108.5       108.0       107.5    
        106.8       106.1       105.3       104.4       103.4       102.4       101.3       100.3       99.24       98.21    
        97.16       96.13       95.11       94.10       93.10       92.12       91.15       90.19       89.23       88.29    
        87.36       86.43       85.51       84.60       83.70       82.79       81.89       81.00       80.10       79.20    
        78.31       77.41       76.50       75.59       74.68       73.76       72.83       71.89       70.95       70.00    
  44  -1000.0     -1000.0       110.1       109.9       109.6       109.3       109.0       108.6       108.1       107.5    
        106.9       106.2       105.4       104.5       103.5       102.5       101.4       100.4       99.34       98.31    
        97.26       96.23       95.21       94.21       93.21       92.23       91.25       90.29       89.33       88.39    
        87.45       86.52       85.60       84.69       83.77       82.87       81.96       81.06       80.16       79.26    
        78.36       77.45       76.54       75.63       74.71       73.78       72.85       71.90       70.95       70.00    
  45  -1000.0     -1000.0     -1000.0       110.0       109.7       109.3       109.0       108.6       108.1       107.5    
        106.9       106.2       105.4       104.6       103.6       102.5       101.5       100.5       99.42       98.39    
        97.35       96.32       95.30       94.29       93.30       92.31       91.34       90.37       89.42       88.47    
        87.53       86.60       85.67       84.76       83.84       82.93       82.02       81.12       80.21       79.31    
        78.40       77.49       76.58       75.66       74.73       73.80       72.86       71.91       70.96       70.00    
  46  -1000.0     -1000.0     -1000.0     -1000.0       109.7       109.4       109.0       108.6       108.1       107.6    
        106.9       106.2       105.5       104.6       103.6       102.6       101.6       100.5       99.49       98.46    
        97.42       96.39       95.37       94.36       93.37       92.38       91.41       90.44       89.48       88.53    
        87.59       86.66       85.73       84.81       83.89       82.98       82.07       81.16       80.25       79.34    
        78.43       77.52       76.60       75.68       74.75       73.82       72.87       71.92       70.96       70.00    
  47  -1000.0     -1000.0     -1000.0     -1000.0     -1000.0       109.4       109.0       108.5       108.1       107.6    
        107.0       106.3       105.5       104.6       103.7       102.6       101.6       100.6       99.53       98.51    
        97.47       96.44       95.42       94.41       93.42       92.43       91.46       90.49       89.53       88.58    
        87.64       86.71       85.78       84.85       83.93       83.02       82.10       81.19       80.28       79.37    
        78.46       77.54       76.62       75.70       74.77       73.83       72.88       71.93       70.97       70.00    
  48  -1000.0     -1000.0     -1000.0     -1000.0     -1000.0     -1000.0       109.0       108.6       108.0       107.5    
        106.9       106.3       105.5       104.7       103.7       102.7       101.6       100.6       99.57       98.54    
        97.50       96.47       95.45       94.45       93.45       92.47       91.49       90.52       89.57       88.62    
        87.67       86.74       85.81       84.88       83.96       83.04       82.13       81.21       80.30       79.39    
        78.47       77.56       76.64       75.71       74.78       73.84       72.89       71.93       70.97       70.00    
  49  -1000.0     -1000.0     -1000.0     -1000.0     -1000.0     -1000.0     -1000.0       108.6       108.1       107.5    
        106.9       106.3       105.5       104.7       103.7       102.7       101.6       100.6       99.58       98.56    
        97.52       96.49       95.47       94.47       93.47       92.48       91.51       90.54       89.58       88.63    
        87.69       86.75       85.82       84.89       83.97       83.05       82.14       81.23       80.31       79.40    
        78.48       77.57       76.64       75.72       74.78       73.84       72.89       71.93       70.97       70.00    
  50  -1000.0     -1000.0     -1000.0     -1000.0     -1000.0     -1000.0     -1000.0     -1000.0     -1000.0     -1000.0    
      -1000.0     -1000.0     -1000.0     -1000.0     -1000.0     -1000.0     -1000.0     -1000.0     -1000.0     -1000.0    
      -1000.0     -1000.0     -1000.0     -1000.0     -1000.0     -1000.0     -1000.0     -1000.0     -1000.0     -1000.0    
      -1000.0     -1000.0     -1000.0     -1000.0     -1000.0     -1000.0     -1000.0     -1000.0     -1000.0     -1000.0    
      -1000.0     -1000.0     -1000.0     -1000.0     -1000.0     -1000.0     -1000.0     -1000.0     -1000.0       70.00    
1
              HEAD IN LAYER   3 AT END OF TIME STEP   1 IN STRESS PERIOD    1
  ---------------------------------------------------------------------------

            1           2           3           4           5           6           7           8           9          10
           11          12          13          14          15          16          17          18          19          20
           21          22          23          24          25          26          27          28          29          30
           31          32          33          34          35          36          37          38          39          40
[...]
        92.19       91.52       90.82       90.08       89.32       88.54       87.73       86.90       86.06       85.20    
        84.32       83.42       82.50       81.54       80.54       79.47       78.32       77.05       75.77       75.50    
        75.22       74.83       74.35       73.81       73.23       72.61       71.98       71.32       70.66       70.00    
  24  -1000.0       105.3       105.2       105.0       104.6       104.3       103.8       103.2       102.6       101.9    
        101.2       100.3       99.44       98.48       97.46       96.38       95.34       94.34       93.37       92.41    
        91.99       91.44       90.81       90.11       89.36       88.58       87.78       86.96       86.12       85.26    
        84.38       83.49       82.57       81.63       80.66       79.65       78.61       77.57       76.62       76.02    
        75.51       75.00       74.46       73.88       73.27       72.65       72.00       71.34       70.67       70.00    
  25  -1000.0       105.2       105.0       104.8       104.5       104.0       103.5       103.0       102.3       101.6    
        100.8       100.0       99.10       98.14       97.11       96.01       94.95       93.93       92.93       91.97    
        91.90       91.47       90.87       90.18       89.44       88.67       87.87       87.04       86.20       85.34    
        84.47       83.59       82.68       81.76       80.82       79.87       78.91       77.98       77.13       76.42    
        75.80       75.20       74.59       73.98       73.34       72.69       72.03       71.36       70.68       70.00    
  26  -1000.0       105.6       105.5       105.3       105.0       104.6       104.1       103.6       102.9       102.3    
        101.5       100.7       99.79       98.83       97.80       96.70       95.63       94.59       93.59       92.62    
        92.19       91.65       91.02       90.32       89.57       88.79       87.98       87.15       86.31       85.46    
        84.59       83.71       82.81       81.91       81.00       80.09       79.18       78.31       77.49       76.74    
        76.05       75.39       74.74       74.08       73.42       72.75       72.07       71.38       70.69       70.00    
  27  -1000.0       106.0       105.9       105.7       105.4       105.1       104.6       104.1       103.5       102.9    
        102.1       101.3       100.4       99.47       98.44       97.33       96.26       95.22       94.20       93.22    
        92.60       91.94       91.25       90.51       89.74       88.94       88.13       87.29       86.45       85.59    
        84.72       83.85       82.96       82.07       81.18       80.30       79.42       78.58       77.76       77.00    
        76.27       75.57       74.88       74.19       73.50       72.81       72.11       71.41       70.71       70.00    
  28  -1000.0       106.4       106.3       106.2       105.9       105.6       105.1       104.6       104.1       103.4    
        102.7       101.9       101.0       100.1       99.03       97.92       96.84       95.79       94.77       93.78    
        93.03       92.28       91.52       90.74       89.94       89.13       88.30       87.45       86.60       85.74    
        84.87       84.00       83.12       82.25       81.37       80.50       79.64       78.81       78.00       77.22    
        76.47       75.73       75.01       74.30       73.59       72.87       72.16       71.44       70.72       70.00    
  29  -1000.0       106.8       106.7       106.6       106.3       106.0       105.6       105.1       104.5       103.9    
        103.2       102.4       101.5       100.6       99.57       98.46       97.38       96.33       95.30       94.29    
        93.46       92.64       91.82       91.00       90.17       89.33       88.49       87.63       86.77       85.90    
        85.03       84.16       83.29       82.42       81.55       80.69       79.84       79.01       78.20       77.41    
        76.64       75.88       75.14       74.40       73.67       72.94       72.21       71.47       70.74       70.00    
  30  -1000.0       107.2       107.1       107.0       106.7       106.4       106.0       105.5       105.0       104.4    
        103.7       102.9       102.0       101.1       100.1       98.96       97.88       96.82       95.78       94.77    
        93.87       93.00       92.13       91.28       90.42       89.55       88.69       87.82       86.95       86.08    
        85.20       84.33       83.46       82.59       81.73       80.87       80.03       79.19       78.38       77.58    
        76.79       76.02       75.26       74.50       73.75       73.00       72.25       71.50       70.75       70.00    
  31  -1000.0       107.6       107.5       107.3       107.1       106.8       106.4       106.0       105.4       104.8    
        104.1       103.3       102.5       101.5       100.5       99.41       98.33       97.27       96.23       95.20    
        94.26       93.34       92.44       91.55       90.67       89.78       88.90       88.02       87.14       86.26    
        85.38       84.50       83.63       82.76       81.90       81.04       80.20       79.36       78.54       77.73    
        76.93       76.15       75.37       74.59       73.83       73.06       72.29       71.53       70.76       70.00    
  32  -1000.0       107.9       107.8       107.7       107.5       107.2       106.8       106.3       105.8       105.2    
        104.5       103.7       102.9       101.9       100.9       99.83       98.74       97.68       96.63       95.61    
        94.63       93.68       92.75       91.83       90.92       90.01       89.11       88.22       87.33       86.44    
        85.55       84.67       83.80       82.93       82.06       81.20       80.35       79.52       78.69       77.87    
        77.06       76.26       75.47       74.68       73.90       73.12       72.34       71.56       70.78       70.00    
  33  -1000.0       108.2       108.1       108.0       107.8       107.5       107.1       106.7       106.1       105.5    
        104.9       104.1       103.2       102.3       101.3       100.2       99.12       98.05       97.01       95.98    
        94.97       93.99       93.04       92.09       91.16       90.24       89.33       88.42       87.52       86.62    
        85.73       84.84       83.96       83.09       82.22       81.36       80.50       79.66       78.82       78.00    
        77.18       76.37       75.56       74.76       73.96       73.17       72.38       71.58       70.79       70.00    
  34  -1000.0       108.5       108.4       108.3       108.1       107.8       107.4       107.0       106.4       105.9    
        105.2       104.4       103.6       102.7       101.6       100.5       99.46       98.40       97.35       96.31    
        95.29       94.29       93.31       92.35       91.40       90.46       89.53       88.62       87.70       86.80    
        85.90       85.01       84.12       83.24       82.37       81.50       80.64       79.79       78.95       78.11    
        77.29       76.46       75.65       74.83       74.03       73.22       72.41       71.61       70.80       70.00    
  35  -1000.0       108.8       108.7       108.5       108.3       108.0       107.7       107.2       106.7       106.1    
        105.5       104.7       103.9       103.0       101.9       100.9       99.77       98.71       97.66       96.62    
        95.58       94.57       93.57       92.59       91.63       90.68       89.74       88.81       87.88       86.97    
        86.06       85.17       84.27       83.39       82.51       81.64       80.77       79.92       79.07       78.22    
        77.39       76.55       75.73       74.90       74.08       73.26       72.45       71.63       70.82       70.00    
  36  -1000.0       109.0       108.9       108.8       108.6       108.3       107.9       107.5       107.0       106.4    
        105.7       105.0       104.1       103.2       102.2       101.1       100.1       98.99       97.94       96.91    
        95.85       94.82       93.81       92.82       91.84       90.88       89.93       88.99       88.06       87.14    
        86.22       85.32       84.42       83.53       82.64       81.77       80.90       80.03       79.18       78.33    
        77.48       76.64       75.80       74.97       74.14       73.31       72.48       71.65       70.83       70.00    
  37  -1000.0       109.2       109.1       109.0       108.8       108.5       108.1       107.7       107.2       106.6    
        106.0       105.2       104.4       103.5       102.5       101.4       100.3       99.25       98.20       97.16    
        96.10       95.06       94.03       93.03       92.04       91.07       90.11       89.16       88.22       87.29    
        86.37       85.46       84.56       83.66       82.77       81.89       81.01       80.14       79.28       78.42    
        77.57       76.72       75.87       75.03       74.19       73.35       72.51       71.67       70.84       70.00    
  38  -1000.0       109.4       109.3       109.2       109.0       108.7       108.3       107.9       107.4       106.8    
        106.2       105.4       104.6       103.7       102.7       101.6       100.5       99.48       98.43       97.39    
        96.32       95.27       94.24       93.23       92.23       91.25       90.28       89.32       88.38       87.44    
        86.52       85.60       84.69       83.78       82.89       82.00       81.12       80.24       79.37       78.51    
        77.64       76.79       75.93       75.08       74.23       73.38       72.54       71.69       70.85       70.00    
  39  -1000.0       109.6       109.5       109.3       109.1       108.9       108.5       108.1       107.6       107.0    
        106.3       105.6       104.8       103.9       102.9       101.8       100.7       99.68       98.64       97.60    
        96.52       95.46       94.43       93.41       92.40       91.41       90.44       89.47       88.52       87.58    
        86.65       85.72       84.81       83.90       83.00       82.10       81.22       80.33       79.46       78.58    
        77.72       76.85       75.99       75.13       74.27       73.42       72.56       71.71       70.85       70.00    
  40  -1000.0       109.7       109.6       109.5       109.3       109.0       108.6       108.2       107.7       107.1    
        106.5       105.8       104.9       104.0       103.1       102.0       100.9       99.86       98.82       97.78    
        96.70       95.64       94.60       93.57       92.56       91.56       90.58       89.61       88.65       87.71    
        86.77       85.84       84.92       84.00       83.10       82.20       81.31       80.42       79.53       78.66    
        77.78       76.91       76.04       75.17       74.31       73.45       72.58       71.72       70.86       70.00    
  41  -1000.0       109.8       109.8       109.6       109.4       109.1       108.8       108.3       107.8       107.3    
        106.6       105.9       105.1       104.2       103.2       102.1       101.1       100.0       98.98       97.94    
        96.86       95.79       94.75       93.72       92.70       91.70       90.71       89.74       88.77       87.82    
        86.88       85.94       85.02       84.10       83.19       82.28       81.39       80.49       79.60       78.72    
        77.84       76.96       76.09       75.22       74.34       73.47       72.61       71.74       70.87       70.00    
  42  -1000.0     -1000.0       109.9       109.7       109.5       109.2       108.9       108.4       107.9       107.4    
        106.7       106.0       105.2       104.3       103.3       102.3       101.2       100.2       99.12       98.09    
        97.00       95.93       94.88       93.84       92.82       91.82       90.83       89.85       88.88       87.92    
        86.98       86.04       85.11       84.18       83.27       82.36       81.46       80.56       79.67       78.78    
        77.89       77.01       76.13       75.25       74.37       73.50       72.62       71.75       70.87       70.00    
  43  -1000.0     -1000.0     -1000.0       109.8       109.6       109.3       108.9       108.5       108.0       107.5    
        106.8       106.1       105.3       104.4       103.4       102.4       101.3       100.3       99.24       98.21    
        97.12       96.05       94.99       93.96       92.93       91.92       90.93       89.95       88.97       88.01    
        87.06       86.12       85.19       84.26       83.34       82.43       81.52       80.62       79.72       78.83    
        77.94       77.05       76.17       75.28       74.40       73.52       72.64       71.76       70.88       70.00    
  44  -1000.0     -1000.0     -1000.0     -1000.0       109.6       109.3       109.0       108.6       108.1       107.5    
        106.9       106.2       105.4       104.5       103.5       102.5       101.4       100.4       99.34       98.31    
        97.22       96.15       95.09       94.05       93.03       92.02       91.02       90.03       89.06       88.09    
        87.14       86.19       85.25       84.32       83.40       82.49       81.57       80.67       79.77       78.87    
        77.98       77.09       76.20       75.31       74.42       73.54       72.65       71.77       70.88       70.00    
  45  -1000.0     -1000.0     -1000.0     -1000.0     -1000.0       109.3       109.0       108.6       108.1       107.5    
        106.9       106.2       105.4       104.6       103.6       102.5       101.5       100.5       99.42       98.39    
        97.30       96.23       95.17       94.13       93.10       92.09       91.09       90.10       89.12       88.16    
        87.20       86.25       85.31       84.38       83.45       82.53       81.62       80.71       79.81       78.91    
        78.01       77.11       76.22       75.33       74.44       73.55       72.66       71.78       70.89       70.00    
  46  -1000.0     -1000.0     -1000.0     -1000.0     -1000.0     -1000.0       109.0       108.6       108.1       107.6    
        106.9       106.2       105.5       104.6       103.6       102.6       101.6       100.5       99.49       98.46    
        97.37       96.30       95.24       94.19       93.17       92.15       91.15       90.16       89.18       88.21    
        87.25       86.30       85.36       84.42       83.49       82.57       81.66       80.75       79.84       78.94    
        78.04       77.14       76.24       75.35       74.46       73.56       72.67       71.78       70.89       70.00    
  47  -1000.0     -1000.0     -1000.0     -1000.0     -1000.0     -1000.0     -1000.0       108.5       108.1       107.6    
        107.0       106.3       105.5       104.6       103.7       102.6       101.6       100.6       99.53       98.51    
        97.42       96.34       95.29       94.24       93.21       92.20       91.19       90.20       89.22       88.25    
        87.29       86.33       85.39       84.45       83.52       82.60       81.68       80.77       79.86       78.96    
        78.06       77.16       76.26       75.36       74.47       73.57       72.68       71.79       70.89       70.00    
  48  -1000.0     -1000.0     -1000.0     -1000.0     -1000.0     -1000.0     -1000.0     -1000.0       108.0       107.5    
        106.9       106.3       105.5       104.7       103.7       102.7       101.6       100.6       99.57       98.54    
        97.45       96.38       95.32       94.27       93.24       92.22       91.22       90.23       89.25       88.27    
        87.31       86.36       85.41       84.48       83.55       82.62       81.70       80.79       79.88       78.97    
        78.07       77.17       76.27       75.37       74.48       73.58       72.68       71.79       70.89       70.00    
  49  -1000.0     -1000.0     -1000.0     -1000.0     -1000.0     -1000.0     -1000.0     -1000.0     -1000.0       107.5    
        106.9       106.3       105.5       104.7       103.7       102.7       101.6       100.6       99.58       98.56    
        97.47       96.39       95.33       94.29       93.26       92.24       91.23       90.24       89.26       88.29    
        87.32       86.37       85.42       84.49       83.56       82.63       81.71       80.80       79.89       78.98    
        78.07       77.17       76.27       75.38       74.48       73.58       72.69       71.79       70.90       70.00    
  50  -1000.0     -1000.0     -1000.0     -1000.0     -1000.0     -1000.0     -1000.0     -1000.0     -1000.0     -1000.0    
      -1000.0     -1000.0     -1000.0     -1000.0     -1000.0     -1000.0     -1000.0     -1000.0     -1000.0     -1000.0    
      -1000.0     -1000.0     -1000.0     -1000.0     -1000.0     -1000.0     -1000.0     -1000.0     -1000.0     -1000.0    
      -1000.0     -1000.0     -1000.0     -1000.0     -1000.0     -1000.0     -1000.0     -1000.0     -1000.0     -1000.0    
      -1000.0     -1000.0     -1000.0     -1000.0     -1000.0     -1000.0     -1000.0     -1000.0     -1000.0       70.00    

 HEAD WILL BE SAVED ON UNIT   51 AT END OF TIME STEP    1, STRESS PERIOD    1

 DRAWDOWN WILL BE SAVED ON UNIT   52 AT END OF TIME STEP    1, STRESS PERIOD    1
1
  VOLUMETRIC BUDGET FOR ENTIRE MODEL AT END OF TIME STEP    1, STRESS PERIOD   1
  ------------------------------------------------------------------------------

     CUMULATIVE VOLUMES      L**3       RATES FOR THIS TIME STEP      L**3/T
     ------------------                 ------------------------

           IN:                                      IN:
           ---                                      ---
             STORAGE =           0.0000               STORAGE =           0.0000
       CONSTANT HEAD =           0.0000         CONSTANT HEAD =           0.0000
               WELLS =         375.0000                 WELLS =         375.0000
       RIVER LEAKAGE =         519.3425         RIVER LEAKAGE =         519.3425
                  ET =           0.0000                    ET =           0.0000
            RECHARGE =       33199.9961              RECHARGE =       33199.9961

            TOTAL IN =       34094.3398              TOTAL IN =       34094.3398

          OUT:                                     OUT:
          ----                                     ----
             STORAGE =           0.0000               STORAGE =           0.0000
       CONSTANT HEAD =       14568.5742         CONSTANT HEAD =       14568.5742
               WELLS =        6000.0000                 WELLS =        6000.0000
       RIVER LEAKAGE =       12830.7344         RIVER LEAKAGE =       12830.7344
                  ET =         695.0095                    ET =         695.0095
            RECHARGE =           0.0000              RECHARGE =           0.0000

           TOTAL OUT =       34094.3164             TOTAL OUT =       34094.3164

            IN - OUT =       2.3438E-02              IN - OUT =       2.3438E-02

 PERCENT DISCREPANCY =           0.00     PERCENT DISCREPANCY =           0.00






         TIME SUMMARY AT END OF TIME STEP    1 IN STRESS PERIOD    1
                    SECONDS     MINUTES      HOURS       DAYS        YEARS
                    -----------------------------------------------------------
   TIME STEP LENGTH  86400.      1440.0      24.000      1.0000     2.73785E-03
 STRESS PERIOD TIME  86400.      1440.0      24.000      1.0000     2.73785E-03
         TOTAL TIME  86400.      1440.0      24.000      1.0000     2.73785E-03
1

 Run end date and time (yyyy/mm/dd hh:mm:ss): 2026/02/26  5:33:44
 Elapsed run time: 16.003 Seconds

