                                  MODFLOW-2005     
      U.S. GEOLOGICAL SURVEY MODULAR FINITE-DIFFERENCE GROUND-WATER FLOW MODEL
                            VERSION 1.12.00 2/3/2017

 LIST FILE: static_ensemble_1113113.list
                         UNIT    2

 OPENING static_ensemble_1113113.dis
 FILE TYPE:DIS   UNIT   11   STATUS:OLD    
 FORMAT:FORMATTED              ACCESS:SEQUENTIAL          

 OPENING static_ensemble_1113113.bas
 FILE TYPE:BAS6   UNIT   13   STATUS:OLD    
 FORMAT:FORMATTED              ACCESS:SEQUENTIAL          

 OPENING static_ensemble_1113113.lpf
 FILE TYPE:LPF   UNIT   15   STATUS:OLD    
 FORMAT:FORMATTED              ACCESS:SEQUENTIAL          

 OPENING static_ensemble_1113113.evt
 FILE TYPE:EVT   UNIT   22   STATUS:OLD    
 FORMAT:FORMATTED              ACCESS:SEQUENTIAL          

 OPENING static_ensemble_1113113.rch
 FILE TYPE:RCH   UNIT   19   STATUS:OLD    
 FORMAT:FORMATTED              ACCESS:SEQUENTIAL          

 OPENING static_ensemble_1113113.riv
 FILE TYPE:RIV   UNIT   18   STATUS:OLD    
 FORMAT:FORMATTED              ACCESS:SEQUENTIAL          

 OPENING static_ensemble_1113113.wel
 FILE TYPE:WEL   UNIT   20   STATUS:OLD    
 FORMAT:FORMATTED              ACCESS:SEQUENTIAL          

 OPENING static_ensemble_1113113.oc
 FILE TYPE:OC   UNIT   14   STATUS:OLD    
 FORMAT:FORMATTED              ACCESS:SEQUENTIAL          

 OPENING static_ensemble_1113113.pcg
 FILE TYPE:PCG   UNIT   27   STATUS:OLD    
 FORMAT:FORMATTED              ACCESS:SEQUENTIAL          

 OPENING static_ensemble_1113113.cbc
 FILE TYPE:DATA(BINARY)   UNIT   53   STATUS:REPLACE
 FORMAT:UNFORMATTED            ACCESS:STREAM              

 OPENING static_ensemble_1113113.hds
 FILE TYPE:DATA(BINARY)   UNIT   51   STATUS:REPLACE
 FORMAT:UNFORMATTED            ACCESS:STREAM              

 OPENING static_ensemble_1113113.ddn
 FILE TYPE:DATA(BINARY)   UNIT   52   STATUS:REPLACE
 FORMAT:UNFORMATTED            ACCESS:STREAM              

 BAS -- BASIC PACKAGE, VERSION 7, 5/2/2005 INPUT READ FROM UNIT   13
 
 MODFLOW was compiled using mixed precision
 Precision of REAL variables:           6
 Precision of DOUBLE PRECISION variables:          15

 DISCRETIZATION INPUT DATA READ FROM UNIT   11
 # DIS package for MODFLOW-2005 generated by Flopy 3.9.5
    3 LAYERS        50 ROWS        50 COLUMNS
    1 STRESS PERIOD(S) IN SIMULATION
 MODEL TIME UNIT IS DAYS
 MODEL LENGTH UNIT IS METERS
  Confining bed flag for each layer:
   0   0   0

                     DELR =   1000.00    

                     DELC =   1000.00    



           TOP ELEVATION OF LAYER 1
 READING ON UNIT   11 WITH FORMAT: (50E15.6)           



             MODEL LAYER BOTTOM EL. FOR LAYER   1
 READING ON UNIT   11 WITH FORMAT: (50E15.6)           



             MODEL LAYER BOTTOM EL. FOR LAYER   2
 READING ON UNIT   11 WITH FORMAT: (50E15.6)           



             MODEL LAYER BOTTOM EL. FOR LAYER   3
 READING ON UNIT   11 WITH FORMAT: (50E15.6)           


 STRESS PERIOD     LENGTH       TIME STEPS     MULTIPLIER FOR DELT    SS FLAG
 ----------------------------------------------------------------------------
        1         1.000000          1                    1.000         SS

 STEADY-STATE SIMULATION



 
 # BAS6 package for MODFLOW-2005 generated by Flopy 3.9.5                        
 THE FREE FORMAT OPTION HAS BEEN SELECTED



                     BOUNDARY ARRAY FOR LAYER   1
 READING ON UNIT   13 WITH FORMAT: (50I10)             



                     BOUNDARY ARRAY FOR LAYER   2
 READING ON UNIT   13 WITH FORMAT: (50I10)             



                     BOUNDARY ARRAY FOR LAYER   3
 READING ON UNIT   13 WITH FORMAT: (50I10)             

 AQUIFER HEAD WILL BE SET TO  -999.99     AT ALL NO-FLOW NODES (IBOUND=0).



                       INITIAL HEAD FOR LAYER   1
 READING ON UNIT   13 WITH FORMAT: (50E15.6)           



                       INITIAL HEAD FOR LAYER   2
 READING ON UNIT   13 WITH FORMAT: (50E15.6)           



                       INITIAL HEAD FOR LAYER   3
 READING ON UNIT   13 WITH FORMAT: (50E15.6)           
 # OC package for MODFLOW-2005 generated by Flopy 3.9.5

 OUTPUT CONTROL IS SPECIFIED ONLY AT TIME STEPS FOR WHICH OUTPUT IS DESIRED
 COMPACT CELL-BY-CELL BUDGET FILES WILL BE WRITTEN
 AUXILIARY DATA WILL BE SAVED IN CELL-BY-CELL BUDGET FILES
 HEAD PRINT FORMAT CODE IS   0    DRAWDOWN PRINT FORMAT CODE IS   0
 HEADS WILL BE SAVED ON UNIT   51    DRAWDOWNS WILL BE SAVED ON UNIT   52

 LPF -- LAYER-PROPERTY FLOW PACKAGE, VERSION 7, 5/2/2005
         INPUT READ FROM UNIT   15
 # LPF package for MODFLOW-2005 generated by Flopy 3.9.5
 CELL-BY-CELL FLOWS WILL BE SAVED ON UNIT   53
 HEAD AT CELLS THAT CONVERT TO DRY= -1.00000E+30
 No named parameters
 STORAGECOEFFICIENT OPTION:
 Read storage coefficient rather than specific storage

   LAYER FLAGS:
 LAYER       LAYTYP        LAYAVG         CHANI        LAYVKA        LAYWET
 ---------------------------------------------------------------------------
    1             1             0     1.000E+00             0             0
    2             1             0     1.000E+00             0             0
    3             1             0     1.000E+00             0             0

   INTERPRETATION OF LAYER FLAGS:
                        INTERBLOCK     HORIZONTAL    DATA IN
         LAYER TYPE   TRANSMISSIVITY   ANISOTROPY   ARRAY VKA   WETTABILITY
 LAYER      (LAYTYP)      (LAYAVG)       (CHANI)      (LAYVKA)      (LAYWET)
 ---------------------------------------------------------------------------
    1   CONVERTIBLE      HARMONIC     1.000E+00    VERTICAL K  NON-WETTABLE
    2   CONVERTIBLE      HARMONIC     1.000E+00    VERTICAL K  NON-WETTABLE
    3   CONVERTIBLE      HARMONIC     1.000E+00    VERTICAL K  NON-WETTABLE

 WETTING CAPABILITY IS NOT ACTIVE IN ANY LAYER



              HYD. COND. ALONG ROWS FOR LAYER   1
 READING ON UNIT   15 WITH FORMAT: (50E15.6)           



                VERTICAL HYD. COND. FOR LAYER   1
 READING ON UNIT   15 WITH FORMAT: (50E15.6)           



              HYD. COND. ALONG ROWS FOR LAYER   2
 READING ON UNIT   15 WITH FORMAT: (50E15.6)           



                VERTICAL HYD. COND. FOR LAYER   2
 READING ON UNIT   15 WITH FORMAT: (50E15.6)           



              HYD. COND. ALONG ROWS FOR LAYER   3
 READING ON UNIT   15 WITH FORMAT: (50E15.6)           



                VERTICAL HYD. COND. FOR LAYER   3
 READING ON UNIT   15 WITH FORMAT: (50E15.6)           

 WEL -- WELL PACKAGE, VERSION 7, 5/2/2005 INPUT READ FROM UNIT   20
 # WEL package for MODFLOW-2005 generated by Flopy 3.9.5
 No named parameters
 MAXIMUM OF      3 ACTIVE WELLS AT ONE TIME


     0 Well parameters

 RIV -- RIVER PACKAGE, VERSION 7, 5/2/2005 INPUT READ FROM UNIT   18
 # RIV package for MODFLOW-2005 generated by Flopy 3.9.5
 No named parameters
 MAXIMUM OF     49 ACTIVE RIVER REACHES AT ONE TIME
 CELL-BY-CELL FLOWS WILL BE SAVED ON UNIT   53


     0 River parameters

 EVT -- EVAPOTRANSPIRATION PACKAGE, VERSION 7, 5/2/2005
         INPUT READ FROM UNIT   22
 # EVT package for MODFLOW-2005 generated by Flopy 3.9.5
 No named parameters
 OPTION 3 -- EVAPOTRANSPIRATION FROM HIGHEST ACTIVE NODE IN EACH VERTICAL COLUMN
 CELL-BY-CELL FLOWS WILL BE SAVED ON UNIT   53


     0 Evapotranspiration parameters

 RCH -- RECHARGE PACKAGE, VERSION 7, 5/2/2005 INPUT READ FROM UNIT   19
 # RCH package for MODFLOW-2005 generated by Flopy 3.9.5
 No named parameters
 OPTION 3 -- RECHARGE TO HIGHEST ACTIVE NODE IN EACH VERTICAL COLUMN
 CELL-BY-CELL FLOWS WILL BE SAVED ON UNIT   53


     0 Recharge parameters

 PCG -- CONJUGATE-GRADIENT SOLUTION PACKAGE, VERSION 7, 5/2/2005
 # PCG package for MODFLOW-2005 generated by Flopy 3.9.5
 MAXIMUM OF   5000 CALLS OF SOLUTION ROUTINE
 MAXIMUM OF    500 INTERNAL ITERATIONS PER CALL TO SOLUTION ROUTINE
 MATRIX PRECONDITIONING TYPE :    1



                                    SOLUTION BY THE CONJUGATE-GRADIENT METHOD
                                   -------------------------------------------
                    MAXIMUM NUMBER OF CALLS TO PCG ROUTINE =     5000
                        MAXIMUM ITERATIONS PER CALL TO PCG =      500
                               MATRIX PRECONDITIONING TYPE =        1
        RELAXATION FACTOR (ONLY USED WITH PRECOND. TYPE 1) =    0.97000E+00
 PARAMETER OF POLYNOMIAL PRECOND. = 2 (2) OR IS CALCULATED :        0
                         HEAD CHANGE CRITERION FOR CLOSURE =    0.10000E-04
                     RESIDUAL CHANGE CRITERION FOR CLOSURE =    0.10000E-04
            PCG HEAD AND RESIDUAL CHANGE PRINTOUT INTERVAL =      999
     PRINTING FROM SOLVER IS LIMITED(1) OR SUPPRESSED (>1) =        3
                            STEADY-STATE DAMPING PARAMETER =    0.10000E-01
                               TRANSIENT DAMPING PARAMETER =    0.10000E-01
1
                            STRESS PERIOD NO.    1, LENGTH =   1.000000    
                            -----------------------------------------------

                              NUMBER OF TIME STEPS =     1

                               MULTIPLIER FOR DELT =     1.000

                            INITIAL TIME STEP SIZE =   1.000000    

 WELL NO.  LAYER   ROW   COL   STRESS RATE         
 --------------------------------------------------
      1      3     22     39      -1500.    
      2      1     13     15      -4500.    
      3      1     25     26       375.0    

      3 WELLS

 REACH NO.  LAYER   ROW   COL     STAGE      CONDUCTANCE     BOTTOM EL.         
 -------------------------------------------------------------------------------
      1      1     25      2       100.5           5000.           98.00    
      2      1     25      3       99.50           5000.           97.00    
      3      1     25      4       98.50           5000.           96.00    
      4      1     25      5       97.50           5000.           95.00    
      5      1     25      6       96.50           5000.           94.00    
      6      1     25      7       95.50           5000.           93.00    
      7      1     25      8       94.50           5000.           92.00    
      8      1     25      9       93.50           5000.           91.00    
      9      1     25     10       92.50           5000.           90.00    
     10      1     25     11       91.50           5000.           89.00    
     11      1     25     12       90.50           5000.           88.00    
     12      1     25     13       89.50           5000.           87.00    
     13      1     25     14       88.50           5000.           86.00    
     14      1     25     15       87.50           5000.           85.00    
     15      1     25     16       86.50           5000.           84.00    
     16      1     25     17       85.50           5000.           83.00    
     17      1     25     18       84.50           5000.           82.00    
     18      1     25     19       83.50           5000.           81.00    
     19      1     25     20       82.50           5000.           80.00    
     20      1     25     21       81.50           5000.           79.00    
     21      1     25     22       80.50           5000.           78.00    
     22      1     25     23       79.50           5000.           77.00    
     23      1     25     24       78.50           5000.           76.00    
     24      1     25     25       77.50           5000.           75.00    
     25      1     25     26       77.40           5000.           74.90    
     26      1     25     27       77.30           5000.           74.80    
     27      1     25     28       77.20           5000.           74.70    
     28      1     25     29       77.10           5000.           74.60    
     29      1     25     30       77.00           5000.           74.50    
     30      1     25     31       76.90           5000.           74.40    
     31      1     25     32       76.80           5000.           74.30    
     32      1     25     33       76.70           5000.           74.20    
     33      1     25     34       76.60           5000.           74.10    
     34      1     25     35       76.50           5000.           74.00    
     35      1     25     36       76.40           5000.           73.90    
     36      1     25     37       76.30           5000.           73.80    
     37      1     25     38       76.20           5000.           73.70    
     38      1     25     39       76.10           5000.           73.60    
     39      1     25     40       76.00           5000.           73.50    
     40      1     25     41       75.90           5000.           73.40    
     41      1     25     42       75.80           5000.           73.30    
     42      1     25     43       75.70           5000.           73.20    
     43      1     25     44       75.60           5000.           73.10    
     44      1     25     45       75.50           5000.           73.00    
     45      1     25     46       75.40           5000.           72.90    
     46      1     25     47       75.30           5000.           72.80    
     47      1     25     48       75.20           5000.           72.70    
     48      1     25     49       75.10           5000.           72.60    
     49      1     25     50       75.00           5000.           72.50    

     49 RIVER REACHES



                         ET SURFACE
 READING ON UNIT   22 WITH FORMAT: (50E15.6)           



            EVAPOTRANSPIRATION RATE
 READING ON UNIT   22 WITH FORMAT: (50E15.6)           

         EXTINCTION DEPTH =   10.0000    



                           RECHARGE
 READING ON UNIT   19 WITH FORMAT: (50E15.6)           
 
 SOLVING FOR HEAD 

 OUTPUT CONTROL FOR STRESS PERIOD    1   TIME STEP    1
    SAVE HEAD FOR ALL LAYERS
    SAVE DRAWDOWN FOR ALL LAYERS
    SAVE BUDGET
    PRINT HEAD FOR ALL LAYERS
    PRINT BUDGET
 UBDSV2 SAVING "   CONSTANT HEAD" ON UNIT  53 AT TIME STEP  1, STRESS PERIOD   1
 UBDSV1 SAVING "FLOW RIGHT FACE " ON UNIT  53 AT TIME STEP  1, STRESS PERIOD   1
 UBDSV1 SAVING "FLOW FRONT FACE " ON UNIT  53 AT TIME STEP  1, STRESS PERIOD   1
 UBDSV1 SAVING "FLOW LOWER FACE " ON UNIT  53 AT TIME STEP  1, STRESS PERIOD   1
 UBDSV4 SAVING "   RIVER LEAKAGE" ON UNIT  53 AT TIME STEP  1, STRESS PERIOD   1
 UBDSV3 SAVING "              ET" ON UNIT  53 AT TIME STEP  1, STRESS PERIOD   1
 UBDSV3 SAVING "        RECHARGE" ON UNIT  53 AT TIME STEP  1, STRESS PERIOD   1
1
              HEAD IN LAYER   1 AT END OF TIME STEP   1 IN STRESS PERIOD    1
  ---------------------------------------------------------------------------

            1           2           3           4           5           6           7           8           9          10
           11          12          13          14          15          16          17          18          19          20
           21          22          23          24          25          26          27          28          29          30
           31          32          33          34          35          36          37          38          39          40
           41          42          43          44          45          46          47          48          49          50
 ........................................................................................................................
   1  -1000.0     -1000.0     -1000.0     -1000.0     -1000.0     -1000.0     -1000.0     -1000.0     -1000.0     -1000.0    
      -1000.0     -1000.0     -1000.0     -1000.0     -1000.0     -1000.0     -1000.0     -1000.0     -1000.0     -1000.0    
      -1000.0     -1000.0     -1000.0     -1000.0     -1000.0     -1000.0     -1000.0     -1000.0     -1000.0     -1000.0    
      -1000.0     -1000.0     -1000.0     -1000.0     -1000.0     -1000.0     -1000.0     -1000.0     -1000.0     -1000.0    
      -1000.0     -1000.0     -1000.0     -1000.0     -1000.0     -1000.0     -1000.0     -1000.0     -1000.0       70.00    
   2  -1000.0     -1000.0     -1000.0     -1000.0     -1000.0       99.66       99.39       98.93       98.38       97.72    
        97.18       96.54       95.80       94.99       94.10       93.13       92.20       91.30       90.43       89.58    
        88.81       88.05       87.32       86.59       85.89       85.19       84.51       83.84       83.18       82.53    
        81.89       81.26       80.63       80.01       79.39       78.78       78.17       77.56       76.96       76.35    
        75.74       75.13       74.52       73.90       73.28       72.64       72.00       71.35       70.68       70.00    
   3  -1000.0     -1000.0     -1000.0     -1000.0       100.0       99.75       99.38       98.90       98.30       97.77    
        97.18       96.52       95.77       94.95       94.06       93.09       92.16       91.26       90.39       89.55    
        88.78       88.02       87.29       86.57       85.86       85.17       84.49       83.82       83.17       82.52    
        81.88       81.24       80.62       80.00       79.38       78.77       78.16       77.55       76.95       76.34    
        75.74       75.13       74.52       73.90       73.27       72.64       72.00       71.35       70.68       70.00    
   4  -1000.0     -1000.0     -1000.0       100.3       100.1       99.77       99.34       98.81       98.32       97.77    
        97.15       96.47       95.71       94.88       93.98       93.01       92.07       91.18       90.31       89.48    
        88.71       87.96       87.23       86.52       85.82       85.13       84.45       83.79       83.13       82.48    
        81.84       81.21       80.59       79.97       79.36       78.75       78.14       77.54       76.93       76.33    
        75.73       75.12       74.51       73.89       73.27       72.64       72.00       71.35       70.68       70.00    
   5  -1000.0     -1000.0       100.6       100.4       100.1       99.73       99.25       98.81       98.30       97.73    
        97.09       96.38       95.60       94.76       93.85       92.88       91.95       91.05       90.20       89.37    
        88.62       87.88       87.15       86.44       85.75       85.06       84.39       83.73       83.08       82.43    
        81.80       81.17       80.55       79.93       79.32       78.72       78.11       77.51       76.91       76.31    
        75.71       75.10       74.49       73.88       73.26       72.63       71.99       71.34       70.68       70.00    
   6  -1000.0       100.7       100.6       100.4       100.0       99.63       99.24       98.78       98.25       97.65    
        96.98       96.25       95.45       94.59       93.67       92.69       91.77       90.89       90.05       89.24    
        88.49       87.76       87.04       86.34       85.65       84.98       84.31       83.65       83.01       82.37    
        81.74       81.11       80.49       79.88       79.28       78.68       78.08       77.48       76.88       76.28    
        75.69       75.08       74.48       73.87       73.25       72.62       71.99       71.34       70.68       70.00    
   7  -1000.0       100.7       100.5       100.3       99.93       99.60       99.19       98.71       98.16       97.54    
        96.84       96.07       95.24       94.36       93.43       92.45       91.54       90.68       89.85       89.06    
        88.33       87.62       86.91       86.22       85.54       84.87       84.21       83.56       82.92       82.28    
        81.66       81.04       80.43       79.82       79.22       78.62       78.03       77.44       76.85       76.25    
        75.66       75.06       74.46       73.85       73.24       72.61       71.98       71.34       70.68       70.00    
   8  -1000.0       100.5       100.4       100.1       99.88       99.54       99.12       98.62       98.04       97.39    
        96.65       95.85       94.98       94.06       93.11       92.14       91.25       90.41       89.62       88.86    
        88.15       87.45       86.76       86.08       85.41       84.75       84.09       83.45       82.81       82.18    
        81.56       80.95       80.35       79.75       79.15       78.56       77.97       77.39       76.80       76.22    
        75.63       75.04       74.44       73.84       73.22       72.60       71.97       71.33       70.67       70.00    
   9  -1000.0       100.4       100.3       100.1       99.81       99.46       99.02       98.50       97.90       97.21    
        96.43       95.57       94.65       93.68       92.70       91.75       90.89       90.10       89.35       88.62    
        87.94       87.26       86.59       85.92       85.26       84.60       83.95       83.32       82.69       82.07    
        81.46       80.85       80.25       79.66       79.07       78.49       77.91       77.33       76.75       76.17    
        75.59       75.01       74.41       73.82       73.21       72.59       71.97       71.33       70.67       70.00    
  10  -1000.0       100.3       100.2       99.98       99.71       99.35       98.90       98.36       97.73       97.00    
        96.17       95.25       94.24       93.19       92.16       91.24       90.46       89.74       89.05       88.37    
        87.71       87.05       86.40       85.74       85.09       84.44       83.80       83.17       82.55       81.94    
        81.33       80.74       80.15       79.56       78.99       78.41       77.84       77.27       76.70       76.13    
        75.55       74.97       74.39       73.80       73.20       72.58       71.96       71.32       70.67       70.00    
  11  -1000.0       100.2       100.1       99.88       99.60       99.24       98.77       98.21       97.55       96.79    
        95.90       94.90       93.77       92.55       91.38       90.58       89.95       89.35       88.73       88.10    
        87.48       86.84       86.19       85.55       84.90       84.26       83.63       83.01       82.39       81.79    
        81.19       80.61       80.03       79.45       78.88       78.32       77.76       77.20       76.64       76.08    
        75.51       74.94       74.36       73.78       73.18       72.57       71.95       71.32       70.67       70.00    
  12  -1000.0       100.1       99.96       99.77       99.49       99.11       98.64       98.06       97.38       96.58    
        95.64       94.55       93.25       91.72       90.09       89.73       89.40       88.96       88.43       87.85    
        87.24       86.62       85.98       85.34       84.70       84.07       83.44       82.82       82.22       81.62    
        81.04       80.46       79.89       79.33       78.77       78.22       77.67       77.12       76.58       76.03    
        75.47       74.91       74.34       73.76       73.17       72.57       71.95       71.32       70.67       70.00    
  13  -1000.0       99.94       99.84       99.65       99.36       98.98       98.49       97.91       97.21       96.39    
        95.43       94.28       92.85       90.86       87.35       88.84       88.97       88.66       88.18       87.62    
        87.02       86.40       85.76       85.12       84.49       83.85       83.23       82.62       82.03       81.44    
        80.86       80.30       79.74       79.19       78.65       78.11       77.58       77.05       76.51       75.97    
        75.43       74.88       74.32       73.75       73.17       72.57       71.95       71.32       70.67       70.00    
  14  -1000.0       99.82       99.73       99.53       99.24       98.84       98.35       97.76       97.05       96.23    
        95.28       94.17       92.85       91.31       89.66       89.30       88.97       88.53       88.01       87.43    
        86.81       86.18       85.54       84.89       84.25       83.62       83.01       82.40       81.81       81.24    
        80.67       80.12       79.58       79.05       78.52       78.00       77.48       76.96       76.44       75.92    
        75.39       74.85       74.31       73.74       73.17       72.57       71.96       71.33       70.67       70.00    
  15  -1000.0       99.70       99.60       99.40       99.10       98.70       98.21       97.61       96.91       96.10    
        95.17       94.13       92.97       91.72       90.53       89.72       89.09       88.49       87.88       87.26    
        86.62       85.96       85.30       84.65       84.00       83.37       82.76       82.16       81.58       81.01    
        80.47       79.93       79.40       78.89       78.38       77.87       77.37       76.87       76.37       75.87    
        75.35       74.83       74.30       73.75       73.18       72.59       71.98       71.34       70.68       70.00    
  16  -1000.0       99.59       99.48       99.27       98.97       98.56       98.06       97.45       96.76       95.96    
        95.07       94.09       93.04       91.94       90.88       89.95       89.16       88.45       87.77       87.11    
        86.41       85.73       85.05       84.38       83.72       83.09       82.48       81.89       81.32       80.77    
        80.24       79.72       79.21       78.72       78.23       77.74       77.26       76.79       76.30       75.82    
        75.33       74.82       74.30       73.77       73.21       72.62       72.01       71.36       70.69       70.00    
  17  -1000.0       99.47       99.36       99.15       98.83       98.41       97.90       97.29       96.59       95.81    
        94.95       94.02       93.03       92.01       90.99       90.01       89.15       88.37       87.64       86.94    
        86.20       85.47       84.76       84.08       83.42       82.78       82.17       81.59       81.03       80.50    
        79.99       79.49       79.00       78.53       78.07       77.61       77.15       76.70       76.24       75.78    
        75.31       74.82       74.32       73.80       73.25       72.67       72.05       71.40       70.72       70.00    
  18  -1000.0       99.36       99.25       99.02       98.69       98.25       97.72       97.11       96.41       95.63    
        94.79       93.88       92.93       91.95       90.95       89.96       89.06       88.24       87.47       86.74    
        85.95       85.19       84.45       83.74       83.06       82.42       81.82       81.25       80.71       80.20    
        79.71       79.24       78.78       78.34       77.90       77.47       77.04       76.61       76.18       75.75    
        75.30       74.84       74.36       73.86       73.32       72.75       72.13       71.46       70.75       70.00    
  19  -1000.0       99.27       99.14       98.90       98.54       98.08       97.53       96.90       96.19       95.41    
        94.57       93.68       92.74       91.78       90.79       89.79       88.88       88.04       87.27       86.52    
        85.67       84.86       84.08       83.35       82.66       82.02       81.43       80.87       80.36       79.87    
        79.41       78.97       78.54       78.13       77.72       77.32       76.92       76.53       76.13       75.73    
        75.31       74.88       74.43       73.95       73.43       72.86       72.24       71.55       70.80       70.00    
  20  -1000.0       99.20       99.06       98.78       98.40       97.90       97.32       96.66       95.93       95.13    
        94.29       93.40       92.47       91.51       90.53       89.52       88.61       87.78       87.03       86.27    
        85.34       84.46       83.64       82.89       82.19       81.55       80.97       80.44       79.96       79.51    
        79.08       78.67       78.28       77.91       77.54       77.17       76.81       76.45       76.09       75.72    
        75.34       74.95       74.53       74.08       73.59       73.03       72.41       71.69       70.88       70.00    
  21  -1000.0       99.16       99.00       98.69       98.25       97.71       97.08       96.38       95.62       94.80    
        93.94       93.04       92.11       91.14       90.16       89.15       88.24       87.44       86.78       86.03    
        84.94       83.98       83.12       82.33       81.63       81.00       80.45       79.96       79.51       79.10    
        78.72       78.36       78.01       77.67       77.34       77.02       76.70       76.38       76.06       75.74    
        75.40       75.05       74.67       74.27       73.81       73.28       72.65       71.91       71.02       70.00    
  22  -1000.0       99.20       98.99       98.61       98.10       97.49       96.80       96.05       95.24       94.40    
        93.51       92.60       91.65       90.68       89.69       88.67       87.75       86.94       86.28       85.54    
        84.38       83.37       82.46       81.66       80.95       80.35       79.84       79.40       79.01       78.65    
        78.32       78.01       77.72       77.43       77.15       76.87       76.60       76.32       76.05       75.77    
        75.48       75.18       74.86       74.50       74.10       73.61       73.02       72.25       71.25       70.00    
  23  -1000.0       99.33       99.05       98.57       97.95       97.25       96.48       95.66       94.81       93.92    
        93.00       92.06       91.10       90.12       89.12       88.09       87.14       86.28       85.50       84.77    
        83.63       82.60       81.66       80.83       80.12       79.57       79.14       78.77       78.45       78.16    
        77.90       77.65       77.40       77.17       76.94       76.72       76.50       76.27       76.05       75.83    
        75.59       75.35       75.09       74.80       74.47       74.07       73.55       72.81       71.69       70.00    
  24  -1000.0       99.65       99.21       98.55       97.79       96.96       96.10       95.20       94.28       93.35    
        92.39       91.43       90.45       89.46       88.45       87.41       86.44       85.52       84.66       83.92    
        82.72       81.67       80.70       79.82       79.07       78.64       78.32       78.06       77.83       77.63    
        77.44       77.25       77.08       76.90       76.73       76.57       76.40       76.24       76.07       75.90    
        75.73       75.55       75.37       75.17       74.94       74.66       74.29       73.71       72.62       70.00    
  25  -1000.0       100.3       99.48       98.54       97.58       96.61       95.63       94.65       93.66       92.67    
        91.67       90.68       89.68       88.68       87.67       86.66       85.66       84.67       83.69       82.78    
        81.60       80.59       79.59       78.59       77.63       77.55       77.37       77.26       77.15       77.04    
        76.94       76.83       76.73       76.62       76.52       76.41       76.31       76.20       76.10       76.00    
        75.89       75.79       75.68       75.58       75.47       75.36       75.24       75.11       74.85       70.00    
  26  -1000.0       99.94       99.50       98.85       98.09       97.27       96.41       95.53       94.62       93.69    
        92.74       91.78       90.81       89.81       88.79       87.74       86.73       85.78       84.89       84.13    
        82.93       81.89       80.93       80.04       79.29       78.85       78.52       78.25       78.02       77.81    
        77.61       77.42       77.23       77.05       76.87       76.69       76.52       76.34       76.17       75.99    
        75.81       75.62       75.42       75.21       74.97       74.69       74.31       73.72       72.62       70.00    
  27  -1000.0       99.90       99.62       99.15       98.55       97.87       97.11       96.32       95.48       94.61    
        93.71       92.78       91.83       90.84       89.82       88.76       87.75       86.81       85.95       85.18    
        84.08       83.07       82.14       81.31       80.59       80.02       79.56       79.18       78.84       78.54    
        78.25       77.98       77.72       77.46       77.22       76.97       76.73       76.49       76.25       76.00    
        75.75       75.49       75.21       74.90       74.55       74.13       73.59       72.84       71.70       70.00    
  28  -1000.0       100.0       99.84       99.48       98.99       98.41       97.74       97.02       96.25       95.43    
        94.58       93.68       92.75       91.77       90.76       89.69       88.69       87.75       86.88       86.09    
        85.06       84.10       83.20       82.39       81.66       81.03       80.49       80.02       79.59       79.21    
        78.85       78.50       78.18       77.86       77.55       77.24       76.94       76.64       76.34       76.03    
        75.72       75.39       75.04       74.65       74.22       73.71       73.09       72.30       71.27       70.00    
  29  -1000.0       100.3       100.1       99.83       99.42       98.91       98.32       97.66       96.94       96.17    
        95.36       94.49       93.58       92.62       91.61       90.55       89.54       88.60       87.71       86.89    
        85.92       85.00       84.13       83.32       82.57       81.90       81.30       80.77       80.28       79.82    
        79.40       79.00       78.61       78.23       77.87       77.51       77.15       76.80       76.44       76.08    
        75.71       75.32       74.91       74.47       73.97       73.41       72.75       71.97       71.05       70.00    
  30  -1000.0       100.6       100.4       100.2       99.83       99.38       98.85       98.24       97.57       96.84    
        96.06       95.22       94.33       93.38       92.38       91.32       90.32       89.37       88.47       87.62    
        86.69       85.79       84.94       84.13       83.37       82.67       82.03       81.44       80.90       80.39    
        79.91       79.45       79.01       78.59       78.17       77.76       77.36       76.96       76.55       76.14    
        75.72       75.29       74.83       74.33       73.80       73.20       72.53       71.78       70.93       70.00    
  31  -1000.0       100.9       100.8       100.5       100.2       99.82       99.34       98.77       98.14       97.45    
        96.69       95.87       95.00       94.07       93.08       92.02       91.02       90.06       89.15       88.29    
        87.38       86.50       85.65       84.84       84.07       83.34       82.67       82.04       81.46       80.91    
        80.38       79.88       79.40       78.93       78.47       78.01       77.57       77.12       76.68       76.22    
        75.76       75.28       74.78       74.25       73.68       73.07       72.39       71.65       70.85       70.00    
  32  -1000.0       101.2       101.1       100.9       100.6       100.2       99.79       99.26       98.66       97.99    
        97.26       96.47       95.61       94.69       93.71       92.66       91.65       90.69       89.77       88.89    
        88.00       87.13       86.29       85.48       84.69       83.95       83.25       82.59       81.97       81.38    
        80.82       80.28       79.75       79.25       78.75       78.26       77.77       77.29       76.80       76.31    
        75.81       75.30       74.76       74.21       73.61       72.98       72.31       71.58       70.81       70.00    
  33  -1000.0       101.5       101.4       101.3       101.0       100.6       100.2       99.71       99.13       98.49    
        97.78       97.00       96.16       95.25       94.28       93.23       92.23       91.26       90.33       89.44    
        88.56       87.69       86.85       86.04       85.25       84.49       83.77       83.09       82.44       81.82    
        81.22       80.65       80.09       79.55       79.01       78.49       77.97       77.45       76.93       76.41    
        75.88       75.34       74.77       74.19       73.58       72.93       72.26       71.54       70.79       70.00    
  34  -1000.0       101.9       101.8       101.6       101.3       101.0       100.6       100.1       99.56       98.94    
        98.25       97.49       96.66       95.76       94.79       93.75       92.74       91.78       90.84       89.94    
        89.06       88.20       87.36       86.54       85.75       84.97       84.24       83.54       82.87       82.22    
        81.60       80.99       80.41       79.83       79.27       78.71       78.16       77.62       77.07       76.52    
        75.96       75.39       74.80       74.20       73.57       72.91       72.23       71.52       70.77       70.00    
  35  -1000.0       102.2       102.1       101.9       101.7       101.4       101.0       100.5       99.96       99.35    
        98.67       97.92       97.10       96.21       95.25       94.22       93.21       92.24       91.30       90.39    
        89.51       88.66       87.82       87.00       86.19       85.41       84.66       83.95       83.25       82.59    
        81.94       81.31       80.70       80.10       79.51       78.93       78.35       77.78       77.20       76.62    
        76.04       75.45       74.84       74.22       73.58       72.91       72.22       71.51       70.77       70.00    
  36  -1000.0       102.5       102.4       102.2       102.0       101.7       101.3       100.8       100.3       99.72    
        99.05       98.31       97.51       96.62       95.67       94.64       93.63       92.66       91.71       90.80    
        89.92       89.07       88.23       87.40       86.59       85.81       85.05       84.32       83.61       82.92    
        82.25       81.60       80.97       80.35       79.73       79.13       78.53       77.93       77.33       76.73    
        76.13       75.52       74.89       74.25       73.60       72.92       72.23       71.51       70.77       70.00    
  37  -1000.0       102.7       102.7       102.5       102.3       102.0       101.6       101.2       100.6       100.1    
        99.40       98.67       97.87       96.99       96.04       95.01       94.01       93.04       92.09       91.17    
        90.29       89.43       88.59       87.77       86.96       86.16       85.40       84.65       83.93       83.23    
        82.54       81.87       81.22       80.58       79.94       79.32       78.70       78.08       77.46       76.84    
        76.22       75.59       74.95       74.29       73.63       72.94       72.24       71.51       70.77       70.00    
  38  -1000.0       103.0       102.9       102.8       102.5       102.2       101.9       101.4       100.9       100.4    
        99.71       98.99       98.19       97.33       96.38       95.35       94.35       93.38       92.43       91.50    
        90.63       89.77       88.92       88.09       87.28       86.48       85.71       84.96       84.22       83.50    
        82.80       82.12       81.45       80.79       80.14       79.49       78.85       78.22       77.58       76.95    
        76.31       75.66       75.00       74.34       73.66       72.96       72.25       71.52       70.77       70.00    
  39  -1000.0       103.2       103.1       103.0       102.8       102.5       102.1       101.7       101.2       100.6    
        99.99       99.27       98.49       97.62       96.68       95.66       94.66       93.68       92.73       91.80    
        90.93       90.06       89.22       88.39       87.57       86.77       85.99       85.23       84.48       83.75    
        83.04       82.34       81.66       80.98       80.32       79.66       79.00       78.35       77.70       77.05    
        76.39       75.73       75.06       74.38       73.69       72.99       72.27       71.53       70.78       70.00    
  40  -1000.0       103.4       103.3       103.2       103.0       102.7       102.3       101.9       101.4       100.9    
        100.2       99.53       98.74       97.88       96.95       95.93       94.93       93.96       93.00       92.07    
        91.19       90.33       89.48       88.65       87.83       87.03       86.24       85.47       84.72       83.98    
        83.26       82.55       81.85       81.16       80.48       79.80       79.13       78.47       77.80       77.14    
        76.47       75.80       75.12       74.43       73.73       73.02       72.29       71.55       70.79       70.00    
  41  -1000.0       103.6       103.5       103.4       103.2       102.9       102.5       102.1       101.6       101.1    
        100.4       99.75       98.97       98.11       97.18       96.17       95.17       94.19       93.24       92.31    
        91.43       90.57       89.72       88.88       88.06       87.25       86.46       85.69       84.93       84.18    
        83.45       82.73       82.02       81.32       80.62       79.94       79.26       78.58       77.90       77.22    
        76.54       75.86       75.17       74.47       73.77       73.05       72.31       71.56       70.79       70.00    
  42  -1000.0       103.8       103.7       103.5       103.3       103.0       102.7       102.3       101.8       101.3    
        100.6       99.93       99.16       98.31       97.38       96.37       95.38       94.40       93.45       92.51    
        91.64       90.78       89.93       89.09       88.26       87.45       86.66       85.88       85.11       84.36    
        83.61       82.89       82.17       81.46       80.75       80.06       79.37       78.68       77.99       77.30    
        76.61       75.92       75.22       74.51       73.80       73.07       72.33       71.57       70.80       70.00    
  43  -1000.0       104.0       103.9       103.6       103.4       103.2       102.8       102.4       101.9       101.4    
        100.8       100.1       99.33       98.48       97.56       96.55       95.56       94.58       93.63       92.69    
        91.82       90.95       90.10       89.27       88.44       87.63       86.83       86.04       85.27       84.51    
        83.76       83.02       82.30       81.58       80.87       80.16       79.46       78.76       78.07       77.37    
        76.67       75.97       75.26       74.55       73.83       73.10       72.35       71.59       70.80       70.00    
  44  -1000.0       104.1       104.0       103.8       103.5       103.3       102.9       102.5       102.0       101.5    
        100.9       100.2       99.46       98.62       97.70       96.69       95.71       94.73       93.78       92.84    
        91.97       91.11       90.26       89.42       88.59       87.77       86.97       86.18       85.40       84.64    
        83.89       83.14       82.41       81.68       80.96       80.25       79.54       78.84       78.13       77.43    
        76.73       76.02       75.30       74.58       73.86       73.12       72.36       71.60       70.81       70.00    
  45  -1000.0       104.2       104.1       103.9       103.7       103.3       103.0       102.6       102.1       101.6    
        101.0       100.3       99.57       98.73       97.82       96.82       95.83       94.86       93.90       92.97    
        92.09       91.23       90.38       89.54       88.71       87.89       87.09       86.30       85.52       84.75    
        83.99       83.24       82.50       81.77       81.04       80.33       79.61       78.90       78.19       77.48    
        76.77       76.06       75.34       74.61       73.88       73.14       72.38       71.61       70.81       70.00    
  46  -1000.0     -1000.0       104.1       104.0       103.7       103.4       103.0       102.6       102.2       101.6    
        101.1       100.4       99.65       98.82       97.91       96.91       95.93       94.96       94.00       93.07    
        92.19       91.33       90.48       89.64       88.81       87.99       87.18       86.39       85.61       84.83    
        84.07       83.32       82.57       81.84       81.11       80.39       79.67       78.95       78.24       77.52    
        76.81       76.09       75.37       74.64       73.90       73.15       72.39       71.61       70.82       70.00    
  47  -1000.0     -1000.0     -1000.0       104.0       103.8       103.5       103.1       102.6       102.2       101.7    
        101.1       100.4       99.70       98.88       97.97       96.98       96.00       95.03       94.08       93.14    
        92.27       91.41       90.55       89.71       88.88       88.06       87.25       86.46       85.67       84.90    
        84.13       83.38       82.63       81.89       81.16       80.43       79.71       78.99       78.27       77.55    
        76.83       76.11       75.39       74.65       73.91       73.16       72.40       71.62       70.82       70.00    
  48  -1000.0     -1000.0     -1000.0     -1000.0       103.7       103.5       103.1       102.7       102.2       101.7    
        101.1       100.5       99.74       98.92       98.02       97.02       96.04       95.08       94.13       93.19    
        92.32       91.45       90.60       89.76       88.93       88.11       87.30       86.50       85.72       84.94    
        84.17       83.42       82.67       81.92       81.19       80.46       79.73       79.01       78.29       77.57    
        76.85       76.13       75.40       74.67       73.92       73.17       72.41       71.62       70.82       70.00    
  49  -1000.0     -1000.0     -1000.0     -1000.0     -1000.0       103.4       103.1       102.7       102.2       101.6    
        101.1       100.5       99.75       98.94       98.04       97.05       96.07       95.10       94.15       93.21    
        92.34       91.48       90.63       89.79       88.95       88.13       87.32       86.53       85.74       84.96    
        84.19       83.43       82.68       81.94       81.21       80.47       79.75       79.02       78.30       77.58    
        76.86       76.14       75.41       74.67       73.93       73.17       72.41       71.63       70.82       70.00    
  50  -1000.0     -1000.0     -1000.0     -1000.0     -1000.0     -1000.0     -1000.0     -1000.0     -1000.0     -1000.0    
      -1000.0     -1000.0     -1000.0     -1000.0     -1000.0     -1000.0     -1000.0     -1000.0     -1000.0     -1000.0    
      -1000.0     -1000.0     -1000.0     -1000.0     -1000.0     -1000.0     -1000.0     -1000.0     -1000.0     -1000.0    
      -1000.0     -1000.0     -1000.0     -1000.0     -1000.0     -1000.0     -1000.0     -1000.0     -1000.0     -1000.0    
      -1000.0     -1000.0     -1000.0     -1000.0     -1000.0     -1000.0     -1000.0     -1000.0     -1000.0       70.00    
1
              HEAD IN LAYER   2 AT END OF TIME STEP   1 IN STRESS PERIOD    1
  ---------------------------------------------------------------------------

            1           2           3           4           5           6           7           8           9          10
           11          12          13          14          15          16          17          18          19          20
           21          22          23          24          25          26          27          28          29          30
           31          32          33          34          35          36          37          38          39          40
           41          42          43          44          45          46          47          48          49          50
 ........................................................................................................................
   1  -1000.0     -1000.0     -1000.0     -1000.0     -1000.0     -1000.0     -1000.0     -1000.0     -1000.0     -1000.0    
      -1000.0     -1000.0     -1000.0     -1000.0     -1000.0     -1000.0     -1000.0     -1000.0     -1000.0     -1000.0    
      -1000.0     -1000.0     -1000.0     -1000.0     -1000.0     -1000.0     -1000.0     -1000.0     -1000.0     -1000.0    
      -1000.0     -1000.0     -1000.0     -1000.0     -1000.0     -1000.0     -1000.0     -1000.0     -1000.0     -1000.0    
      -1000.0     -1000.0     -1000.0     -1000.0     -1000.0     -1000.0     -1000.0     -1000.0     -1000.0       70.00    
   2  -1000.0     -1000.0     -1000.0     -1000.0     -1000.0     -1000.0     -1000.0       98.93       98.38       97.72    
        97.18       96.54       95.80       94.99       94.10       93.13       92.20       91.30       90.43       89.58    
        88.75       87.96       87.18       86.43       85.70       84.99       84.29       83.60       82.93       82.26    
        81.61       80.97       80.33       79.70       79.08       78.46       77.85       77.25       76.64       76.04    
        75.44       74.84       74.24       73.64       73.04       72.44       71.83       71.22       70.61       70.00    
   3  -1000.0     -1000.0     -1000.0     -1000.0     -1000.0     -1000.0       99.38       98.90       98.30       97.77    
        97.18       96.52       95.77       94.95       94.06       93.09       92.16       91.26       90.39       89.55    
        88.72       87.93       87.16       86.41       85.68       84.97       84.27       83.58       82.91       82.25    
        81.60       80.96       80.32       79.69       79.07       78.45       77.84       77.24       76.63       76.03    
        75.43       74.83       74.24       73.64       73.04       72.43       71.83       71.22       70.61       70.00    
   4  -1000.0     -1000.0     -1000.0     -1000.0     -1000.0       99.77       99.34       98.80       98.32       97.77    
        97.15       96.47       95.71       94.88       93.98       93.01       92.07       91.18       90.31       89.48    
        88.66       87.87       87.10       86.36       85.63       84.93       84.23       83.55       82.88       82.22    
        81.57       80.93       80.30       79.67       79.05       78.44       77.83       77.22       76.62       76.02    
        75.42       74.82       74.23       73.63       73.03       72.43       71.83       71.22       70.61       70.00    
   5  -1000.0     -1000.0     -1000.0     -1000.0       100.1       99.73       99.25       98.81       98.30       97.73    
        97.09       96.38       95.60       94.76       93.85       92.88       91.95       91.05       90.20       89.37    
        88.56       87.78       87.03       86.29       85.57       84.87       84.18       83.50       82.83       82.18    
        81.53       80.89       80.26       79.64       79.02       78.41       77.80       77.20       76.60       76.00    
        75.40       74.81       74.21       73.62       73.02       72.42       71.82       71.22       70.61       70.00    
   6  -1000.0     -1000.0     -1000.0       100.4       100.0       99.63       99.24       98.78       98.25       97.65    
        96.98       96.25       95.45       94.59       93.67       92.69       91.77       90.89       90.05       89.24    
        88.44       87.67       86.92       86.20       85.48       84.79       84.10       83.43       82.77       82.12    
        81.47       80.84       80.21       79.59       78.98       78.37       77.76       77.16       76.57       75.97    
        75.38       74.79       74.19       73.60       73.01       72.41       71.81       71.21       70.61       70.00    
   7  -1000.0     -1000.0       100.5       100.3       99.93       99.60       99.19       98.71       98.16       97.54    
        96.84       96.07       95.24       94.36       93.43       92.45       91.54       90.68       89.85       89.06    
        88.28       87.53       86.80       86.08       85.38       84.69       84.02       83.35       82.69       82.05    
        81.41       80.78       80.15       79.54       78.92       78.32       77.72       77.12       76.53       75.94    
        75.35       74.76       74.17       73.58       72.99       72.40       71.80       71.20       70.60       70.00    
   8  -1000.0       100.5       100.4       100.1       99.88       99.54       99.12       98.62       98.04       97.39    
        96.65       95.85       94.98       94.06       93.11       92.14       91.25       90.41       89.62       88.86    
        88.10       87.37       86.65       85.95       85.26       84.58       83.91       83.25       82.60       81.96    
        81.33       80.70       80.08       79.47       78.86       78.26       77.67       77.07       76.48       75.90    
        75.31       74.73       74.15       73.56       72.97       72.39       71.79       71.20       70.60       70.00    
   9  -1000.0       100.4       100.3       100.1       99.81       99.45       99.02       98.50       97.90       97.21    
        96.43       95.57       94.65       93.68       92.70       91.75       90.89       90.10       89.35       88.62    
        87.90       87.19       86.49       85.80       85.12       84.45       83.79       83.14       82.50       81.86    
        81.23       80.61       80.00       79.39       78.79       78.19       77.60       77.02       76.43       75.85    
        75.27       74.69       74.12       73.54       72.95       72.37       71.78       71.19       70.60       70.00    
  10  -1000.0       100.3       100.2       99.98       99.71       99.35       98.90       98.36       97.73       97.00    
        96.17       95.25       94.24       93.19       92.16       91.24       90.46       89.74       89.05       88.37    
        87.68       86.99       86.31       85.64       84.97       84.31       83.66       83.02       82.38       81.75    
        81.13       80.52       79.91       79.31       78.71       78.12       77.53       76.95       76.37       75.80    
        75.23       74.65       74.08       73.51       72.93       72.35       71.77       71.18       70.59       70.00    
  11  -1000.0       100.2       100.1       99.88       99.60       99.24       98.77       98.21       97.55       96.79    
        95.90       94.90       93.77       92.55       91.38       90.58       89.95       89.35       88.73       88.10    
        87.45       86.79       86.12       85.47       84.81       84.16       83.52       82.88       82.25       81.63    
        81.01       80.41       79.80       79.21       78.62       78.03       77.45       76.88       76.31       75.74    
        75.17       74.61       74.04       73.48       72.91       72.33       71.76       71.17       70.59       70.00    
  12  -1000.0       100.1       99.96       99.77       99.49       99.11       98.64       98.06       97.38       96.58    
        95.64       94.55       93.25       91.72       90.09       89.73       89.40       88.96       88.43       87.85    
        87.22       86.58       85.93       85.28       84.64       84.00       83.36       82.73       82.11       81.50    
        80.89       80.29       79.69       79.10       78.52       77.94       77.37       76.80       76.24       75.68    
        75.12       74.56       74.00       73.44       72.88       72.31       71.74       71.16       70.58       70.00    
  13  -1000.0       99.94       99.84       99.65       99.36       98.98       98.49       97.91       97.21       96.39    
        95.43       94.28       92.85       90.86       87.36       88.84       88.97       88.66       88.18       87.62    
        87.01       86.38       85.74       85.10       84.46       83.83       83.20       82.58       81.96       81.35    
        80.75       80.16       79.57       78.99       78.41       77.84       77.27       76.71       76.16       75.61    
        75.06       74.51       73.96       73.41       72.86       72.30       71.73       71.16       70.58       70.00    
  14  -1000.0       99.82       99.73       99.53       99.24       98.84       98.35       97.76       97.05       96.23    
        95.28       94.17       92.85       91.31       89.66       89.30       88.97       88.53       88.01       87.43    
        86.81       86.18       85.54       84.90       84.27       83.64       83.02       82.41       81.80       81.20    
        80.61       80.02       79.44       78.86       78.29       77.73       77.17       76.62       76.07       75.53    
        74.99       74.46       73.92       73.38       72.83       72.28       71.72       71.15       70.58       70.00    
  15  -1000.0       99.70       99.60       99.40       99.10       98.70       98.21       97.61       96.91       96.10    
        95.17       94.13       92.96       91.72       90.53       89.72       89.09       88.49       87.88       87.26    
        86.62       85.98       85.34       84.71       84.08       83.45       82.84       82.23       81.63       81.04    
        80.45       79.87       79.30       78.73       78.17       77.61       77.06       76.52       75.98       75.45    
        74.93       74.40       73.88       73.35       72.81       72.26       71.71       71.15       70.58       70.00    
  16  -1000.0       99.59       99.48       99.27       98.97       98.56       98.06       97.45       96.76       95.96    
        95.07       94.09       93.04       91.94       90.88       89.95       89.16       88.45       87.77       87.11    
        86.44       85.78       85.14       84.50       83.87       83.25       82.64       82.04       81.45       80.87    
        80.29       79.72       79.16       78.60       78.04       77.49       76.95       76.41       75.89       75.37    
        74.86       74.35       73.84       73.32       72.79       72.26       71.71       71.15       70.58       70.00    
  17  -1000.0       99.47       99.36       99.15       98.83       98.41       97.90       97.29       96.59       95.81    
        94.95       94.02       93.03       92.01       90.99       90.01       89.15       88.37       87.64       86.94    
        86.25       85.57       84.92       84.28       83.65       83.04       82.44       81.85       81.27       80.70    
        80.13       79.57       79.01       78.46       77.91       77.36       76.83       76.30       75.78       75.28    
        74.79       74.29       73.80       73.30       72.78       72.25       71.71       71.15       70.58       70.00    
  18  -1000.0       99.36       99.25       99.02       98.69       98.25       97.72       97.11       96.41       95.63    
        94.79       93.88       92.93       91.95       90.95       89.96       89.06       88.24       87.47       86.74    
        86.03       85.35       84.69       84.05       83.42       82.82       82.23       81.65       81.08       80.52    
        79.96       79.41       78.86       78.32       77.77       77.23       76.70       76.18       75.68       75.19    
        74.72       74.25       73.77       73.29       72.79       72.26       71.72       71.16       70.59       70.00    
  19  -1000.0       99.27       99.14       98.90       98.54       98.08       97.53       96.90       96.19       95.41    
        94.57       93.68       92.74       91.78       90.79       89.79       88.88       88.04       87.27       86.52    
        85.79       85.10       84.43       83.80       83.18       82.58       82.00       81.44       80.88       80.33    
        79.79       79.25       78.72       78.18       77.64       77.11       76.58       76.07       75.57       75.11    
        74.66       74.21       73.76       73.29       72.80       72.29       71.75       71.19       70.60       70.00    
  20  -1000.0       99.20       99.06       98.78       98.40       97.90       97.32       96.66       95.93       95.13    
        94.29       93.40       92.47       91.51       90.53       89.52       88.61       87.78       87.03       86.27    
        85.52       84.82       84.16       83.53       82.93       82.34       81.78       81.23       80.69       80.16    
        79.63       79.10       78.58       78.05       77.52       77.00       76.47       75.96       75.47       75.03    
        74.60       74.19       73.76       73.31       72.84       72.33       71.79       71.22       70.62       70.00    
  21  -1000.0       99.16       99.00       98.69       98.25       97.71       97.08       96.38       95.62       94.80    
        93.94       93.04       92.11       91.14       90.16       89.15       88.24       87.44       86.78       86.03    
        85.21       84.50       83.86       83.25       82.67       82.10       81.56       81.03       80.50       79.99    
        79.48       78.97       78.46       77.94       77.43       76.90       76.38       75.86       75.38       74.96    
        74.58       74.19       73.78       73.35       72.89       72.40       71.86       71.27       70.65       70.00    
  22  -1000.0       99.20       98.99       98.61       98.10       97.49       96.80       96.05       95.24       94.40    
        93.51       92.60       91.65       90.68       89.69       88.67       87.75       86.94       86.28       85.54    
        84.78       84.14       83.54       82.97       82.41       81.88       81.35       80.84       80.34       79.84    
        79.35       78.86       78.36       77.86       77.36       76.85       76.33       75.81       75.32       74.94    
        74.59       74.22       73.83       73.42       72.97       72.48       71.94       71.35       70.69       70.00    
  23  -1000.0       99.33       99.05       98.57       97.95       97.25       96.48       95.66       94.81       93.92    
        93.00       92.06       91.10       90.12       89.12       88.09       87.14       86.28       85.50       84.77    
        84.26       83.76       83.25       82.72       82.19       81.68       81.18       80.69       80.21       79.73    
        79.25       78.78       78.30       77.82       77.33       76.84       76.34       75.85       75.40       75.01    
        74.65       74.29       73.91       73.51       73.07       72.58       72.05       71.44       70.75       70.00    
  24  -1000.0       99.65       99.21       98.55       97.79       96.96       96.10       95.20       94.28       93.35    
        92.39       91.43       90.45       89.46       88.45       87.41       86.44       85.52       84.66       83.92    
        83.75       83.45       83.03       82.55       82.05       81.56       81.07       80.60       80.14       79.67    
        79.21       78.75       78.29       77.82       77.35       76.87       76.40       75.94       75.51       75.11    
        74.74       74.38       74.00       73.60       73.17       72.69       72.15       71.54       70.82       70.00    
  25  -1000.0       100.3       99.48       98.54       97.58       96.61       95.63       94.65       93.66       92.67    
        91.68       90.68       89.68       88.68       87.68       86.66       85.66       84.67       83.69       82.78    
        83.43       83.34       82.99       82.53       82.04       81.56       81.08       80.62       80.16       79.70    
        79.25       78.79       78.33       77.87       77.41       76.95       76.50       76.05       75.63       75.23    
        74.85       74.47       74.08       73.68       73.24       72.76       72.22       71.61       70.89       70.00    
  26  -1000.0       99.94       99.50       98.85       98.09       97.27       96.41       95.53       94.62       93.69    
        92.74       91.78       90.81       89.81       88.79       87.74       86.73       85.78       84.89       84.13    
        83.97       83.67       83.26       82.77       82.27       81.77       81.28       80.80       80.33       79.86    
        79.40       78.93       78.47       78.01       77.55       77.09       76.63       76.19       75.76       75.35    
        74.94       74.54       74.13       73.70       73.25       72.75       72.20       71.57       70.84       70.00    
  27  -1000.0       99.90       99.62       99.15       98.55       97.87       97.11       96.32       95.48       94.61    
        93.71       92.78       91.83       90.84       89.82       88.76       87.75       86.81       85.95       85.18    
        84.70       84.22       83.71       83.18       82.64       82.11       81.59       81.09       80.59       80.11    
        79.62       79.14       78.67       78.19       77.72       77.25       76.79       76.34       75.89       75.46    
        75.03       74.60       74.17       73.71       73.23       72.71       72.13       71.49       70.78       70.00    
  28  -1000.0       100.0       99.84       99.48       98.99       98.41       97.74       97.02       96.25       95.43    
        94.58       93.68       92.75       91.77       90.76       89.69       88.69       87.75       86.88       86.09    
        85.44       84.84       84.25       83.66       83.09       82.52       81.97       81.44       80.91       80.40    
        79.89       79.39       78.90       78.41       77.92       77.44       76.96       76.49       76.03       75.57    
        75.12       74.66       74.20       73.71       73.20       72.66       72.07       71.43       70.73       70.00    
  29  -1000.0       100.3       100.1       99.83       99.42       98.91       98.32       97.66       96.94       96.17    
        95.36       94.49       93.58       92.62       91.61       90.55       89.54       88.60       87.71       86.89    
        86.16       85.47       84.82       84.18       83.56       82.96       82.38       81.81       81.26       80.72    
        80.19       79.66       79.15       78.64       78.13       77.63       77.14       76.65       76.16       75.68    
        75.20       74.72       74.22       73.71       73.18       72.62       72.02       71.38       70.70       70.00    
  30  -1000.0       100.6       100.4       100.2       99.83       99.38       98.85       98.24       97.57       96.84    
        96.06       95.22       94.32       93.38       92.38       91.32       90.32       89.37       88.47       87.62    
        86.83       86.09       85.39       84.71       84.05       83.42       82.80       82.20       81.62       81.05    
        80.49       79.95       79.41       78.87       78.35       77.83       77.31       76.80       76.30       75.79    
        75.29       74.78       74.26       73.73       73.17       72.59       71.99       71.35       70.68       70.00    
  31  -1000.0       100.9       100.8       100.5       100.2       99.82       99.34       98.77       98.14       97.45    
        96.69       95.87       95.00       94.07       93.08       92.02       91.02       90.06       89.15       88.29    
        87.46       86.68       85.93       85.22       84.53       83.86       83.22       82.59       81.98       81.38    
        80.80       80.23       79.67       79.11       78.57       78.03       77.49       76.96       76.43       75.90    
        75.37       74.84       74.30       73.74       73.17       72.58       71.97       71.33       70.67       70.00    
  32  -1000.0       101.2       101.1       100.9       100.6       100.2       99.79       99.26       98.66       97.99    
        97.26       96.47       95.61       94.69       93.71       92.66       91.65       90.69       89.77       88.89    
        88.03       87.22       86.45       85.70       84.98       84.29       83.62       82.97       82.33       81.71    
        81.10       80.51       79.93       79.35       78.78       78.22       77.66       77.11       76.56       76.01    
        75.46       74.91       74.35       73.77       73.19       72.58       71.96       71.32       70.66       70.00    
  33  -1000.0       101.5       101.4       101.3       101.0       100.6       100.2       99.71       99.13       98.49    
        97.78       97.00       96.16       95.25       94.28       93.23       92.23       91.26       90.33       89.44    
        88.56       87.73       86.93       86.16       85.42       84.70       84.00       83.33       82.67       82.03    
        81.40       80.78       80.18       79.58       78.99       78.41       77.83       77.26       76.69       76.12    
        75.55       74.98       74.40       73.81       73.21       72.59       71.96       71.32       70.66       70.00    
  34  -1000.0       101.9       101.8       101.6       101.3       101.0       100.6       100.1       99.56       98.94    
        98.25       97.49       96.66       95.76       94.79       93.75       92.74       91.78       90.84       89.94    
        89.05       88.19       87.38       86.59       85.82       85.08       84.37       83.67       82.99       82.33    
        81.68       81.04       80.42       79.80       79.19       78.59       78.00       77.41       76.82       76.23    
        75.64       75.05       74.45       73.85       73.23       72.61       71.97       71.32       70.66       70.00    
  35  -1000.0       102.2       102.1       101.9       101.7       101.4       101.0       100.5       99.96       99.35    
        98.67       97.92       97.10       96.21       95.25       94.22       93.21       92.24       91.30       90.39    
        89.49       88.62       87.79       86.98       86.20       85.44       84.71       83.99       83.29       82.61    
        81.94       81.29       80.65       80.01       79.39       78.77       78.16       77.55       76.94       76.34    
        75.73       75.13       74.51       73.89       73.27       72.63       71.98       71.33       70.67       70.00    
  36  -1000.0       102.5       102.4       102.2       102.0       101.7       101.3       100.8       100.3       99.72    
        99.05       98.31       97.50       96.62       95.67       94.64       93.63       92.66       91.71       90.80    
        89.89       89.01       88.16       87.34       86.55       85.78       85.02       84.29       83.58       82.88    
        82.19       81.52       80.86       80.21       79.57       78.94       78.31       77.69       77.06       76.44    
        75.82       75.20       74.57       73.94       73.30       72.66       72.00       71.34       70.67       70.00    
  37  -1000.0       102.7       102.7       102.5       102.3       102.0       101.6       101.2       100.6       100.1    
        99.40       98.67       97.87       96.99       96.04       95.01       94.01       93.04       92.09       91.17    
        90.25       89.36       88.51       87.68       86.87       86.08       85.32       84.57       83.84       83.13    
        82.43       81.74       81.07       80.40       79.75       79.10       78.45       77.81       77.18       76.54    
        75.91       75.27       74.63       73.99       73.34       72.69       72.02       71.35       70.68       70.00    
  38  -1000.0       103.0       102.9       102.8       102.5       102.2       101.9       101.4       100.9       100.4    
        99.71       98.99       98.19       97.33       96.38       95.35       94.35       93.38       92.43       91.50    
        90.58       89.69       88.82       87.98       87.16       86.36       85.59       84.83       84.08       83.36    
        82.64       81.94       81.26       80.58       79.91       79.24       78.59       77.94       77.29       76.64    
        75.99       75.34       74.69       74.04       73.38       72.71       72.04       71.37       70.68       70.00    
  39  -1000.0       103.2       103.1       103.0       102.8       102.5       102.1       101.7       101.2       100.6    
        99.99       99.27       98.49       97.62       96.68       95.66       94.66       93.68       92.73       91.80    
        90.87       89.97       89.10       88.25       87.43       86.62       85.83       85.06       84.31       83.57    
        82.84       82.13       81.43       80.74       80.06       79.38       78.71       78.05       77.39       76.73    
        76.07       75.41       74.75       74.08       73.42       72.74       72.06       71.38       70.69       70.00    
  40  -1000.0       103.4       103.3       103.2       103.0       102.7       102.3       101.9       101.4       100.9    
        100.2       99.53       98.74       97.88       96.95       95.93       94.93       93.96       93.00       92.07    
        91.14       90.23       89.36       88.50       87.66       86.85       86.05       85.27       84.51       83.76    
        83.02       82.30       81.59       80.89       80.19       79.51       78.83       78.15       77.48       76.81    
        76.14       75.47       74.80       74.13       73.45       72.77       72.08       71.39       70.70       70.00    
  41  -1000.0       103.6       103.5       103.4       103.2       102.9       102.5       102.1       101.6       101.1    
        100.4       99.74       98.97       98.11       97.18       96.17       95.17       94.19       93.24       92.30    
        91.37       90.46       89.58       88.72       87.88       87.05       86.25       85.46       84.69       83.93    
        83.19       82.45       81.73       81.02       80.32       79.62       78.93       78.25       77.57       76.89    
        76.21       75.53       74.85       74.17       73.49       72.80       72.10       71.41       70.70       70.00    
  42  -1000.0       103.8       103.7       103.5       103.3       103.0       102.7       102.3       101.8       101.3    
        100.6       99.93       99.16       98.31       97.38       96.37       95.38       94.40       93.45       92.51    
        91.58       90.67       89.78       88.91       88.06       87.23       86.42       85.63       84.85       84.08    
        83.33       82.59       81.86       81.14       80.43       79.72       79.02       78.33       77.64       76.95    
        76.27       75.58       74.90       74.21       73.52       72.82       72.12       71.42       70.71       70.00    
  43  -1000.0       104.0       103.9       103.6       103.4       103.2       102.8       102.4       101.9       101.4    
        100.8       100.1       99.33       98.48       97.56       96.55       95.56       94.58       93.63       92.69    
        91.75       90.84       89.95       89.08       88.23       87.39       86.57       85.77       84.99       84.21    
        83.46       82.71       81.97       81.24       80.52       79.81       79.11       78.41       77.71       77.02    
        76.32       75.63       74.94       74.24       73.55       72.84       72.14       71.43       70.72       70.00    
  44  -1000.0     -1000.0       104.0       103.8       103.5       103.3       102.9       102.5       102.0       101.5    
        100.9       100.2       99.46       98.62       97.70       96.69       95.71       94.73       93.78       92.84    
        91.90       90.99       90.09       89.22       88.36       87.53       86.70       85.90       85.11       84.33    
        83.56       82.81       82.07       81.33       80.61       79.89       79.18       78.47       77.77       77.07    
        76.37       75.67       74.97       74.27       73.57       72.86       72.15       71.44       70.72       70.00    
  45  -1000.0     -1000.0     -1000.0       103.9       103.7       103.3       103.0       102.6       102.1       101.6    
        101.0       100.3       99.57       98.73       97.82       96.82       95.83       94.86       93.90       92.97    
        92.03       91.11       90.21       89.34       88.48       87.64       86.81       86.00       85.21       84.42    
        83.65       82.89       82.15       81.41       80.68       79.95       79.24       78.53       77.82       77.11    
        76.41       75.71       75.00       74.30       73.59       72.88       72.17       71.45       70.72       70.00    
  46  -1000.0     -1000.0     -1000.0     -1000.0       103.7       103.4       103.0       102.6       102.2       101.6    
        101.1       100.4       99.65       98.82       97.91       96.91       95.93       94.96       94.00       93.07    
        92.13       91.21       90.31       89.43       88.57       87.73       86.90       86.08       85.28       84.50    
        83.73       82.96       82.21       81.47       80.73       80.01       79.28       78.57       77.86       77.15    
        76.44       75.73       75.03       74.32       73.61       72.89       72.18       71.45       70.73       70.00    
  47  -1000.0     -1000.0     -1000.0     -1000.0     -1000.0       103.5       103.1       102.6       102.2       101.7    
        101.1       100.4       99.70       98.88       97.97       96.98       96.00       95.03       94.08       93.14    
        92.20       91.28       90.38       89.50       88.64       87.79       86.96       86.15       85.34       84.56    
        83.78       83.01       82.26       81.51       80.78       80.04       79.32       78.60       77.89       77.17    
        76.46       75.75       75.04       74.33       73.62       72.90       72.18       71.46       70.73       70.00    
  48  -1000.0     -1000.0     -1000.0     -1000.0     -1000.0     -1000.0       103.1       102.7       102.2       101.7    
        101.1       100.5       99.74       98.92       98.02       97.02       96.04       95.08       94.13       93.19    
        92.25       91.33       90.43       89.55       88.68       87.84       87.00       86.19       85.38       84.59    
        83.81       83.05       82.29       81.54       80.80       80.07       79.34       78.62       77.91       77.19    
        76.48       75.77       75.06       74.34       73.63       72.91       72.19       71.46       70.73       70.00    
  49  -1000.0     -1000.0     -1000.0     -1000.0     -1000.0     -1000.0     -1000.0       102.7       102.2       101.6    
        101.1       100.5       99.75       98.94       98.04       97.05       96.07       95.10       94.15       93.21    
        92.27       91.35       90.45       89.57       88.71       87.86       87.03       86.21       85.40       84.61    
        83.83       83.06       82.31       81.56       80.82       80.08       79.36       78.63       77.92       77.20    
        76.49       75.78       75.06       74.35       73.63       72.91       72.19       71.46       70.73       70.00    
  50  -1000.0     -1000.0     -1000.0     -1000.0     -1000.0     -1000.0     -1000.0     -1000.0     -1000.0     -1000.0    
      -1000.0     -1000.0     -1000.0     -1000.0     -1000.0     -1000.0     -1000.0     -1000.0     -1000.0     -1000.0    
      -1000.0     -1000.0     -1000.0     -1000.0     -1000.0     -1000.0     -1000.0     -1000.0     -1000.0     -1000.0    
      -1000.0     -1000.0     -1000.0     -1000.0     -1000.0     -1000.0     -1000.0     -1000.0     -1000.0     -1000.0    
      -1000.0     -1000.0     -1000.0     -1000.0     -1000.0     -1000.0     -1000.0     -1000.0     -1000.0       70.00    
1
              HEAD IN LAYER   3 AT END OF TIME STEP   1 IN STRESS PERIOD    1
  ---------------------------------------------------------------------------

            1           2           3           4           5           6           7           8           9          10
           11          12          13          14          15          16          17          18          19          20
           21          22          23          24          25          26          27          28          29          30
           31          32          33          34          35          36          37          38          39          40
[...]
        84.53       84.29       83.99       83.62       83.21       82.75       82.25       81.72       81.16       80.58    
        79.97       79.33       78.67       77.96       77.21       76.39       75.48       74.44       73.40       73.36    
        73.31       73.15       72.89       72.57       72.20       71.79       71.37       70.92       70.46       70.00    
  24  -1000.0       99.65       99.21       98.55       97.79       96.96       96.10       95.20       94.28       93.35    
        92.39       91.43       90.45       89.46       88.45       87.41       86.44       85.52       84.66       83.92    
        84.08       84.06       83.89       83.59       83.21       82.77       82.28       81.76       81.21       80.63    
        80.03       79.40       78.74       78.06       77.33       76.57       75.77       74.96       74.26       73.88    
        73.60       73.32       73.00       72.64       72.25       71.83       71.39       70.94       70.47       70.00    
  25  -1000.0       100.3       99.48       98.54       97.58       96.61       95.63       94.65       93.66       92.67    
        91.68       90.68       89.68       88.68       87.68       86.66       85.66       84.67       83.69       82.79    
        83.79       84.01       83.91       83.64       83.28       82.84       82.36       81.84       81.29       80.72    
        80.12       79.49       78.85       78.18       77.50       76.79       76.07       75.38       74.76       74.29    
        73.89       73.52       73.14       72.74       72.32       71.88       71.43       70.96       70.48       70.00    
  26  -1000.0       99.94       99.50       98.85       98.09       97.27       96.41       95.53       94.62       93.69    
        92.74       91.78       90.81       89.81       88.79       87.74       86.73       85.78       84.89       84.13    
        84.29       84.29       84.11       83.81       83.43       82.98       82.49       81.96       81.41       80.83    
        80.24       79.62       78.99       78.34       77.68       77.01       76.35       75.71       75.12       74.61    
        74.15       73.71       73.28       72.84       72.40       71.94       71.46       70.98       70.49       70.00    
  27  -1000.0       99.90       99.62       99.15       98.55       97.87       97.11       96.32       95.48       94.61    
        93.71       92.78       91.83       90.84       89.82       88.76       87.75       86.81       85.95       85.18    
        84.97       84.74       84.44       84.07       83.65       83.18       82.67       82.13       81.57       80.98    
        80.39       79.77       79.15       78.51       77.87       77.23       76.59       75.98       75.40       74.87    
        74.37       73.89       73.42       72.95       72.48       72.00       71.51       71.01       70.51       70.00    
  28  -1000.0       100.0       99.84       99.48       98.99       98.41       97.74       97.02       96.25       95.43    
        94.58       93.68       92.75       91.77       90.76       89.69       88.69       87.75       86.88       86.09    
        85.66       85.27       84.85       84.41       83.93       83.42       82.88       82.32       81.75       81.16    
        80.56       79.94       79.32       78.69       78.06       77.43       76.82       76.21       75.64       75.09    
        74.56       74.05       73.55       73.06       72.56       72.06       71.55       71.04       70.52       70.00    
  29  -1000.0       100.3       100.1       99.83       99.42       98.91       98.32       97.66       96.94       96.17    
        95.36       94.49       93.58       92.62       91.61       90.55       89.54       88.60       87.71       86.89    
        86.33       85.81       85.30       84.78       84.24       83.69       83.13       82.55       81.96       81.35    
        80.74       80.13       79.50       78.88       78.25       77.63       77.02       76.42       75.84       75.28    
        74.73       74.20       73.68       73.16       72.64       72.12       71.59       71.06       70.53       70.00    
  30  -1000.0       100.6       100.4       100.2       99.83       99.38       98.85       98.24       97.57       96.84    
        96.06       95.22       94.32       93.38       92.38       91.32       90.32       89.37       88.47       87.62    
        86.97       86.35       85.76       85.17       84.59       83.99       83.40       82.79       82.18       81.56    
        80.94       80.32       79.69       79.06       78.44       77.82       77.21       76.61       76.02       75.45    
        74.89       74.34       73.79       73.25       72.71       72.17       71.63       71.09       70.55       70.00    
  31  -1000.0       100.9       100.8       100.5       100.2       99.82       99.34       98.77       98.14       97.45    
        96.69       95.87       95.00       94.07       93.08       92.02       91.02       90.06       89.15       88.29    
        87.56       86.87       86.21       85.57       84.94       84.31       83.68       83.05       82.42       81.78    
        81.15       80.52       79.88       79.25       78.62       78.00       77.39       76.78       76.19       75.60    
        75.03       74.46       73.90       73.34       72.79       72.23       71.67       71.12       70.56       70.00    
  32  -1000.0       101.2       101.1       100.9       100.6       100.2       99.79       99.26       98.66       97.99    
        97.26       96.47       95.61       94.69       93.71       92.66       91.65       90.69       89.77       88.89    
        88.11       87.36       86.65       85.96       85.29       84.62       83.96       83.31       82.66       82.01    
        81.36       80.72       80.08       79.44       78.80       78.18       77.56       76.94       76.34       75.74    
        75.15       74.57       74.00       73.42       72.85       72.28       71.71       71.14       70.57       70.00    
  33  -1000.0       101.5       101.4       101.3       101.0       100.6       100.2       99.71       99.13       98.49    
        97.78       97.00       96.16       95.25       94.28       93.23       92.23       91.26       90.33       89.44    
        88.61       87.82       87.07       86.34       85.63       84.94       84.25       83.57       82.90       82.24    
        81.57       80.92       80.27       79.62       78.98       78.34       77.71       77.09       76.48       75.87    
        75.27       74.68       74.09       73.50       72.92       72.33       71.75       71.17       70.58       70.00    
  34  -1000.0       101.9       101.8       101.6       101.3       101.0       100.6       100.1       99.56       98.94    
        98.25       97.49       96.66       95.76       94.79       93.75       92.74       91.78       90.84       89.94    
        89.08       88.26       87.47       86.71       85.96       85.24       84.53       83.83       83.14       82.46    
        81.78       81.11       80.45       79.79       79.14       78.50       77.86       77.23       76.61       75.99    
        75.38       74.78       74.17       73.57       72.98       72.38       71.79       71.19       70.60       70.00    
  35  -1000.0       102.2       102.1       101.9       101.7       101.4       101.0       100.5       99.96       99.35    
        98.67       97.92       97.10       96.21       95.25       94.22       93.21       92.24       91.30       90.39    
        89.50       88.65       87.84       87.05       86.28       85.53       84.80       84.08       83.37       82.68    
        81.99       81.31       80.63       79.96       79.30       78.65       78.01       77.37       76.73       76.11    
        75.48       74.87       74.25       73.64       73.03       72.43       71.82       71.21       70.61       70.00    
  36  -1000.0       102.5       102.4       102.2       102.0       101.7       101.3       100.8       100.3       99.72    
        99.05       98.31       97.50       96.62       95.67       94.64       93.63       92.66       91.71       90.80    
        89.89       89.02       88.18       87.37       86.58       85.81       85.06       84.32       83.60       82.89    
        82.18       81.49       80.80       80.13       79.46       78.80       78.14       77.49       76.85       76.21    
        75.58       74.95       74.33       73.70       73.08       72.47       71.85       71.23       70.62       70.00    
  37  -1000.0       102.7       102.7       102.5       102.3       102.0       101.6       101.2       100.6       100.1    
        99.40       98.67       97.87       96.99       96.04       95.01       94.01       93.04       92.09       91.17    
        90.25       89.36       88.50       87.67       86.86       86.07       85.30       84.55       83.81       83.08    
        82.37       81.66       80.97       80.28       79.60       78.93       78.27       77.61       76.95       76.31    
        75.67       75.03       74.39       73.76       73.13       72.51       71.88       71.25       70.63       70.00    
  38  -1000.0       103.0       102.9       102.8       102.5       102.2       101.9       101.4       100.9       100.4    
        99.71       98.99       98.19       97.33       96.38       95.35       94.35       93.38       92.43       91.50    
        90.57       89.66       88.79       87.94       87.12       86.32       85.53       84.76       84.01       83.27    
        82.55       81.83       81.12       80.43       79.74       79.06       78.38       77.72       77.05       76.40    
        75.75       75.10       74.46       73.82       73.18       72.54       71.90       71.27       70.63       70.00    
  39  -1000.0       103.2       103.1       103.0       102.8       102.5       102.1       101.7       101.2       100.6    
        99.99       99.27       98.49       97.62       96.68       95.66       94.66       93.68       92.73       91.80    
        90.86       89.94       89.06       88.19       87.36       86.54       85.74       84.96       84.20       83.45    
        82.71       81.98       81.27       80.56       79.86       79.17       78.49       77.82       77.15       76.48    
        75.82       75.17       74.52       73.87       73.22       72.57       71.93       71.29       70.64       70.00    
  40  -1000.0       103.4       103.3       103.2       103.0       102.7       102.3       101.9       101.4       100.9    
        100.2       99.53       98.74       97.88       96.95       95.93       94.93       93.96       93.00       92.07    
        91.12       90.19       89.29       88.42       87.57       86.75       85.94       85.14       84.37       83.61    
        82.86       82.12       81.40       80.68       79.98       79.28       78.59       77.91       77.23       76.56    
        75.89       75.23       74.57       73.91       73.26       72.60       71.95       71.30       70.65       70.00    
  41  -1000.0       103.6       103.5       103.4       103.2       102.9       102.5       102.1       101.6       101.1    
        100.4       99.74       98.97       98.11       97.18       96.17       95.17       94.19       93.24       92.30    
        91.35       90.41       89.51       88.63       87.77       86.93       86.11       85.31       84.52       83.75    
        83.00       82.25       81.52       80.80       80.08       79.38       78.68       77.99       77.31       76.63    
        75.95       75.28       74.62       73.95       73.29       72.63       71.97       71.31       70.66       70.00    
  42  -1000.0     -1000.0       103.7       103.5       103.3       103.0       102.7       102.3       101.8       101.3    
        100.6       99.93       99.16       98.31       97.38       96.37       95.38       94.40       93.45       92.51    
        91.55       90.61       89.70       88.81       87.94       87.09       86.27       85.46       84.66       83.89    
        83.12       82.37       81.63       80.90       80.18       79.47       78.76       78.07       77.37       76.69    
        76.01       75.33       74.66       73.99       73.32       72.66       71.99       71.33       70.66       70.00    
  43  -1000.0     -1000.0     -1000.0       103.6       103.4       103.2       102.8       102.4       101.9       101.4    
        100.8       100.1       99.33       98.48       97.56       96.55       95.56       94.58       93.63       92.69    
        91.72       90.78       89.86       88.96       88.09       87.24       86.40       85.59       84.79       84.00    
        83.23       82.47       81.72       80.99       80.26       79.54       78.83       78.13       77.43       76.74    
        76.06       75.38       74.70       74.02       73.35       72.68       72.01       71.34       70.67       70.00    
  44  -1000.0     -1000.0     -1000.0     -1000.0       103.5       103.3       102.9       102.5       102.0       101.5    
        100.9       100.2       99.46       98.62       97.70       96.69       95.71       94.73       93.78       92.84    
        91.87       90.92       90.00       89.10       88.22       87.36       86.52       85.70       84.89       84.10    
        83.32       82.56       81.81       81.06       80.33       79.61       78.90       78.19       77.49       76.79    
        76.10       75.41       74.73       74.05       73.37       72.70       72.02       71.35       70.67       70.00    
  45  -1000.0     -1000.0     -1000.0     -1000.0     -1000.0       103.3       103.0       102.6       102.1       101.6    
        101.0       100.3       99.57       98.73       97.82       96.82       95.83       94.86       93.90       92.97    
        91.99       91.04       90.11       89.21       88.32       87.46       86.62       85.79       84.98       84.18    
        83.40       82.63       81.88       81.13       80.39       79.67       78.95       78.23       77.53       76.83    
        76.13       75.44       74.76       74.07       73.39       72.71       72.03       71.35       70.68       70.00    
  46  -1000.0     -1000.0     -1000.0     -1000.0     -1000.0     -1000.0       103.0       102.6       102.2       101.6    
        101.1       100.4       99.65       98.82       97.91       96.91       95.93       94.96       94.00       93.07    
        92.09       91.13       90.20       89.30       88.41       87.54       86.69       85.86       85.05       84.25    
        83.46       82.69       81.93       81.18       80.44       79.71       78.99       78.27       77.56       76.86    
        76.16       75.47       74.78       74.09       73.41       72.72       72.04       71.36       70.68       70.00    
  47  -1000.0     -1000.0     -1000.0     -1000.0     -1000.0     -1000.0     -1000.0       102.6       102.2       101.7    
        101.1       100.4       99.70       98.88       97.97       96.98       96.00       95.03       94.08       93.14    
        92.16       91.21       90.27       89.36       88.47       87.60       86.75       85.92       85.10       84.30    
        83.51       82.74       81.97       81.22       80.48       79.74       79.02       78.30       77.59       76.88    
        76.18       75.49       74.80       74.11       73.42       72.73       72.05       71.36       70.68       70.00    
  48  -1000.0     -1000.0     -1000.0     -1000.0     -1000.0     -1000.0     -1000.0     -1000.0       102.2       101.7    
        101.1       100.5       99.74       98.92       98.02       97.02       96.04       95.08       94.13       93.19    
        92.21       91.25       90.32       89.41       88.52       87.64       86.79       85.96       85.14       84.33    
        83.54       82.77       82.00       81.25       80.50       79.77       79.04       78.32       77.61       76.90    
        76.20       75.50       74.81       74.11       73.43       72.74       72.05       71.37       70.68       70.00    
  49  -1000.0     -1000.0     -1000.0     -1000.0     -1000.0     -1000.0     -1000.0     -1000.0     -1000.0       101.6    
        101.1       100.5       99.75       98.94       98.04       97.05       96.07       95.10       94.15       93.21    
        92.23       91.28       90.34       89.43       88.54       87.67       86.81       85.97       85.15       84.35    
        83.56       82.78       82.01       81.26       80.51       79.78       79.05       78.33       77.62       76.91    
        76.21       75.51       74.81       74.12       73.43       72.74       72.06       71.37       70.68       70.00    
  50  -1000.0     -1000.0     -1000.0     -1000.0     -1000.0     -1000.0     -1000.0     -1000.0     -1000.0     -1000.0    
      -1000.0     -1000.0     -1000.0     -1000.0     -1000.0     -1000.0     -1000.0     -1000.0     -1000.0     -1000.0    
      -1000.0     -1000.0     -1000.0     -1000.0     -1000.0     -1000.0     -1000.0     -1000.0     -1000.0     -1000.0    
      -1000.0     -1000.0     -1000.0     -1000.0     -1000.0     -1000.0     -1000.0     -1000.0     -1000.0     -1000.0    
      -1000.0     -1000.0     -1000.0     -1000.0     -1000.0     -1000.0     -1000.0     -1000.0     -1000.0       70.00    

 HEAD WILL BE SAVED ON UNIT   51 AT END OF TIME STEP    1, STRESS PERIOD    1

 DRAWDOWN WILL BE SAVED ON UNIT   52 AT END OF TIME STEP    1, STRESS PERIOD    1
1
  VOLUMETRIC BUDGET FOR ENTIRE MODEL AT END OF TIME STEP    1, STRESS PERIOD   1
  ------------------------------------------------------------------------------

     CUMULATIVE VOLUMES      L**3       RATES FOR THIS TIME STEP      L**3/T
     ------------------                 ------------------------

           IN:                                      IN:
           ---                                      ---
             STORAGE =           0.0000               STORAGE =           0.0000
       CONSTANT HEAD =           0.0000         CONSTANT HEAD =           0.0000
               WELLS =         375.0000                 WELLS =         375.0000
       RIVER LEAKAGE =        3692.6597         RIVER LEAKAGE =        3692.6597
                  ET =           0.0000                    ET =           0.0000
            RECHARGE =       33199.9961              RECHARGE =       33199.9961

            TOTAL IN =       37267.6562              TOTAL IN =       37267.6562

          OUT:                                     OUT:
          ----                                     ----
             STORAGE =           0.0000               STORAGE =           0.0000
       CONSTANT HEAD =       12317.3438         CONSTANT HEAD =       12317.3438
               WELLS =        6000.0000                 WELLS =        6000.0000
       RIVER LEAKAGE =       18396.3652         RIVER LEAKAGE =       18396.3652
                  ET =         553.9288                    ET =         553.9288
            RECHARGE =           0.0000              RECHARGE =           0.0000

           TOTAL OUT =       37267.6406             TOTAL OUT =       37267.6406

            IN - OUT =       1.5625E-02              IN - OUT =       1.5625E-02

 PERCENT DISCREPANCY =           0.00     PERCENT DISCREPANCY =           0.00






         TIME SUMMARY AT END OF TIME STEP    1 IN STRESS PERIOD    1
                    SECONDS     MINUTES      HOURS       DAYS        YEARS
                    -----------------------------------------------------------
   TIME STEP LENGTH  86400.      1440.0      24.000      1.0000     2.73785E-03
 STRESS PERIOD TIME  86400.      1440.0      24.000      1.0000     2.73785E-03
         TOTAL TIME  86400.      1440.0      24.000      1.0000     2.73785E-03
1

 Run end date and time (yyyy/mm/dd hh:mm:ss): 2026/02/26  5:33:28
 Elapsed run time: 14.291 Seconds

