                                  MODFLOW-2005     
      U.S. GEOLOGICAL SURVEY MODULAR FINITE-DIFFERENCE GROUND-WATER FLOW MODEL
                            VERSION 1.12.00 2/3/2017

 LIST FILE: static_ensemble_1133133.list
                         UNIT    2

 OPENING static_ensemble_1133133.dis
 FILE TYPE:DIS   UNIT   11   STATUS:OLD    
 FORMAT:FORMATTED              ACCESS:SEQUENTIAL          

 OPENING static_ensemble_1133133.bas
 FILE TYPE:BAS6   UNIT   13   STATUS:OLD    
 FORMAT:FORMATTED              ACCESS:SEQUENTIAL          

 OPENING static_ensemble_1133133.lpf
 FILE TYPE:LPF   UNIT   15   STATUS:OLD    
 FORMAT:FORMATTED              ACCESS:SEQUENTIAL          

 OPENING static_ensemble_1133133.evt
 FILE TYPE:EVT   UNIT   22   STATUS:OLD    
 FORMAT:FORMATTED              ACCESS:SEQUENTIAL          

 OPENING static_ensemble_1133133.rch
 FILE TYPE:RCH   UNIT   19   STATUS:OLD    
 FORMAT:FORMATTED              ACCESS:SEQUENTIAL          

 OPENING static_ensemble_1133133.riv
 FILE TYPE:RIV   UNIT   18   STATUS:OLD    
 FORMAT:FORMATTED              ACCESS:SEQUENTIAL          

 OPENING static_ensemble_1133133.wel
 FILE TYPE:WEL   UNIT   20   STATUS:OLD    
 FORMAT:FORMATTED              ACCESS:SEQUENTIAL          

 OPENING static_ensemble_1133133.oc
 FILE TYPE:OC   UNIT   14   STATUS:OLD    
 FORMAT:FORMATTED              ACCESS:SEQUENTIAL          

 OPENING static_ensemble_1133133.pcg
 FILE TYPE:PCG   UNIT   27   STATUS:OLD    
 FORMAT:FORMATTED              ACCESS:SEQUENTIAL          

 OPENING static_ensemble_1133133.cbc
 FILE TYPE:DATA(BINARY)   UNIT   53   STATUS:REPLACE
 FORMAT:UNFORMATTED            ACCESS:STREAM              

 OPENING static_ensemble_1133133.hds
 FILE TYPE:DATA(BINARY)   UNIT   51   STATUS:REPLACE
 FORMAT:UNFORMATTED            ACCESS:STREAM              

 OPENING static_ensemble_1133133.ddn
 FILE TYPE:DATA(BINARY)   UNIT   52   STATUS:REPLACE
 FORMAT:UNFORMATTED            ACCESS:STREAM              

 BAS -- BASIC PACKAGE, VERSION 7, 5/2/2005 INPUT READ FROM UNIT   13
 
 MODFLOW was compiled using mixed precision
 Precision of REAL variables:           6
 Precision of DOUBLE PRECISION variables:          15

 DISCRETIZATION INPUT DATA READ FROM UNIT   11
 # DIS package for MODFLOW-2005 generated by Flopy 3.9.5
    3 LAYERS        50 ROWS        50 COLUMNS
    1 STRESS PERIOD(S) IN SIMULATION
 MODEL TIME UNIT IS DAYS
 MODEL LENGTH UNIT IS METERS
  Confining bed flag for each layer:
   0   0   0

                     DELR =   1000.00    

                     DELC =   1000.00    



           TOP ELEVATION OF LAYER 1
 READING ON UNIT   11 WITH FORMAT: (50E15.6)           



             MODEL LAYER BOTTOM EL. FOR LAYER   1
 READING ON UNIT   11 WITH FORMAT: (50E15.6)           



             MODEL LAYER BOTTOM EL. FOR LAYER   2
 READING ON UNIT   11 WITH FORMAT: (50E15.6)           



             MODEL LAYER BOTTOM EL. FOR LAYER   3
 READING ON UNIT   11 WITH FORMAT: (50E15.6)           


 STRESS PERIOD     LENGTH       TIME STEPS     MULTIPLIER FOR DELT    SS FLAG
 ----------------------------------------------------------------------------
        1         1.000000          1                    1.000         SS

 STEADY-STATE SIMULATION



 
 # BAS6 package for MODFLOW-2005 generated by Flopy 3.9.5                        
 THE FREE FORMAT OPTION HAS BEEN SELECTED



                     BOUNDARY ARRAY FOR LAYER   1
 READING ON UNIT   13 WITH FORMAT: (50I10)             



                     BOUNDARY ARRAY FOR LAYER   2
 READING ON UNIT   13 WITH FORMAT: (50I10)             



                     BOUNDARY ARRAY FOR LAYER   3
 READING ON UNIT   13 WITH FORMAT: (50I10)             

 AQUIFER HEAD WILL BE SET TO  -999.99     AT ALL NO-FLOW NODES (IBOUND=0).



                       INITIAL HEAD FOR LAYER   1
 READING ON UNIT   13 WITH FORMAT: (50E15.6)           



                       INITIAL HEAD FOR LAYER   2
 READING ON UNIT   13 WITH FORMAT: (50E15.6)           



                       INITIAL HEAD FOR LAYER   3
 READING ON UNIT   13 WITH FORMAT: (50E15.6)           
 # OC package for MODFLOW-2005 generated by Flopy 3.9.5

 OUTPUT CONTROL IS SPECIFIED ONLY AT TIME STEPS FOR WHICH OUTPUT IS DESIRED
 COMPACT CELL-BY-CELL BUDGET FILES WILL BE WRITTEN
 AUXILIARY DATA WILL BE SAVED IN CELL-BY-CELL BUDGET FILES
 HEAD PRINT FORMAT CODE IS   0    DRAWDOWN PRINT FORMAT CODE IS   0
 HEADS WILL BE SAVED ON UNIT   51    DRAWDOWNS WILL BE SAVED ON UNIT   52

 LPF -- LAYER-PROPERTY FLOW PACKAGE, VERSION 7, 5/2/2005
         INPUT READ FROM UNIT   15
 # LPF package for MODFLOW-2005 generated by Flopy 3.9.5
 CELL-BY-CELL FLOWS WILL BE SAVED ON UNIT   53
 HEAD AT CELLS THAT CONVERT TO DRY= -1.00000E+30
 No named parameters
 STORAGECOEFFICIENT OPTION:
 Read storage coefficient rather than specific storage

   LAYER FLAGS:
 LAYER       LAYTYP        LAYAVG         CHANI        LAYVKA        LAYWET
 ---------------------------------------------------------------------------
    1             1             0     1.000E+00             0             0
    2             1             0     1.000E+00             0             0
    3             1             0     1.000E+00             0             0

   INTERPRETATION OF LAYER FLAGS:
                        INTERBLOCK     HORIZONTAL    DATA IN
         LAYER TYPE   TRANSMISSIVITY   ANISOTROPY   ARRAY VKA   WETTABILITY
 LAYER      (LAYTYP)      (LAYAVG)       (CHANI)      (LAYVKA)      (LAYWET)
 ---------------------------------------------------------------------------
    1   CONVERTIBLE      HARMONIC     1.000E+00    VERTICAL K  NON-WETTABLE
    2   CONVERTIBLE      HARMONIC     1.000E+00    VERTICAL K  NON-WETTABLE
    3   CONVERTIBLE      HARMONIC     1.000E+00    VERTICAL K  NON-WETTABLE

 WETTING CAPABILITY IS NOT ACTIVE IN ANY LAYER



              HYD. COND. ALONG ROWS FOR LAYER   1
 READING ON UNIT   15 WITH FORMAT: (50E15.6)           



                VERTICAL HYD. COND. FOR LAYER   1
 READING ON UNIT   15 WITH FORMAT: (50E15.6)           



              HYD. COND. ALONG ROWS FOR LAYER   2
 READING ON UNIT   15 WITH FORMAT: (50E15.6)           



                VERTICAL HYD. COND. FOR LAYER   2
 READING ON UNIT   15 WITH FORMAT: (50E15.6)           



              HYD. COND. ALONG ROWS FOR LAYER   3
 READING ON UNIT   15 WITH FORMAT: (50E15.6)           



                VERTICAL HYD. COND. FOR LAYER   3
 READING ON UNIT   15 WITH FORMAT: (50E15.6)           

 WEL -- WELL PACKAGE, VERSION 7, 5/2/2005 INPUT READ FROM UNIT   20
 # WEL package for MODFLOW-2005 generated by Flopy 3.9.5
 No named parameters
 MAXIMUM OF      3 ACTIVE WELLS AT ONE TIME


     0 Well parameters

 RIV -- RIVER PACKAGE, VERSION 7, 5/2/2005 INPUT READ FROM UNIT   18
 # RIV package for MODFLOW-2005 generated by Flopy 3.9.5
 No named parameters
 MAXIMUM OF     49 ACTIVE RIVER REACHES AT ONE TIME
 CELL-BY-CELL FLOWS WILL BE SAVED ON UNIT   53


     0 River parameters

 EVT -- EVAPOTRANSPIRATION PACKAGE, VERSION 7, 5/2/2005
         INPUT READ FROM UNIT   22
 # EVT package for MODFLOW-2005 generated by Flopy 3.9.5
 No named parameters
 OPTION 3 -- EVAPOTRANSPIRATION FROM HIGHEST ACTIVE NODE IN EACH VERTICAL COLUMN
 CELL-BY-CELL FLOWS WILL BE SAVED ON UNIT   53


     0 Evapotranspiration parameters

 RCH -- RECHARGE PACKAGE, VERSION 7, 5/2/2005 INPUT READ FROM UNIT   19
 # RCH package for MODFLOW-2005 generated by Flopy 3.9.5
 No named parameters
 OPTION 3 -- RECHARGE TO HIGHEST ACTIVE NODE IN EACH VERTICAL COLUMN
 CELL-BY-CELL FLOWS WILL BE SAVED ON UNIT   53


     0 Recharge parameters

 PCG -- CONJUGATE-GRADIENT SOLUTION PACKAGE, VERSION 7, 5/2/2005
 # PCG package for MODFLOW-2005 generated by Flopy 3.9.5
 MAXIMUM OF   5000 CALLS OF SOLUTION ROUTINE
 MAXIMUM OF    500 INTERNAL ITERATIONS PER CALL TO SOLUTION ROUTINE
 MATRIX PRECONDITIONING TYPE :    1



                                    SOLUTION BY THE CONJUGATE-GRADIENT METHOD
                                   -------------------------------------------
                    MAXIMUM NUMBER OF CALLS TO PCG ROUTINE =     5000
                        MAXIMUM ITERATIONS PER CALL TO PCG =      500
                               MATRIX PRECONDITIONING TYPE =        1
        RELAXATION FACTOR (ONLY USED WITH PRECOND. TYPE 1) =    0.97000E+00
 PARAMETER OF POLYNOMIAL PRECOND. = 2 (2) OR IS CALCULATED :        0
                         HEAD CHANGE CRITERION FOR CLOSURE =    0.10000E-04
                     RESIDUAL CHANGE CRITERION FOR CLOSURE =    0.10000E-04
            PCG HEAD AND RESIDUAL CHANGE PRINTOUT INTERVAL =      999
     PRINTING FROM SOLVER IS LIMITED(1) OR SUPPRESSED (>1) =        3
                            STEADY-STATE DAMPING PARAMETER =    0.10000E-01
                               TRANSIENT DAMPING PARAMETER =    0.10000E-01
1
                            STRESS PERIOD NO.    1, LENGTH =   1.000000    
                            -----------------------------------------------

                              NUMBER OF TIME STEPS =     1

                               MULTIPLIER FOR DELT =     1.000

                            INITIAL TIME STEP SIZE =   1.000000    

 WELL NO.  LAYER   ROW   COL   STRESS RATE         
 --------------------------------------------------
      1      3     22     39      -1500.    
      2      1     13     15      -1500.    
      3      1     25     26       375.0    

      3 WELLS

 REACH NO.  LAYER   ROW   COL     STAGE      CONDUCTANCE     BOTTOM EL.         
 -------------------------------------------------------------------------------
      1      1     25      2       100.5           5000.           98.00    
      2      1     25      3       99.50           5000.           97.00    
      3      1     25      4       98.50           5000.           96.00    
      4      1     25      5       97.50           5000.           95.00    
      5      1     25      6       96.50           5000.           94.00    
      6      1     25      7       95.50           5000.           93.00    
      7      1     25      8       94.50           5000.           92.00    
      8      1     25      9       93.50           5000.           91.00    
      9      1     25     10       92.50           5000.           90.00    
     10      1     25     11       91.50           5000.           89.00    
     11      1     25     12       90.50           5000.           88.00    
     12      1     25     13       89.50           5000.           87.00    
     13      1     25     14       88.50           5000.           86.00    
     14      1     25     15       87.50           5000.           85.00    
     15      1     25     16       86.50           5000.           84.00    
     16      1     25     17       85.50           5000.           83.00    
     17      1     25     18       84.50           5000.           82.00    
     18      1     25     19       83.50           5000.           81.00    
     19      1     25     20       82.50           5000.           80.00    
     20      1     25     21       81.50           5000.           79.00    
     21      1     25     22       80.50           5000.           78.00    
     22      1     25     23       79.50           5000.           77.00    
     23      1     25     24       78.50           5000.           76.00    
     24      1     25     25       77.50           5000.           75.00    
     25      1     25     26       77.40           5000.           74.90    
     26      1     25     27       77.30           5000.           74.80    
     27      1     25     28       77.20           5000.           74.70    
     28      1     25     29       77.10           5000.           74.60    
     29      1     25     30       77.00           5000.           74.50    
     30      1     25     31       76.90           5000.           74.40    
     31      1     25     32       76.80           5000.           74.30    
     32      1     25     33       76.70           5000.           74.20    
     33      1     25     34       76.60           5000.           74.10    
     34      1     25     35       76.50           5000.           74.00    
     35      1     25     36       76.40           5000.           73.90    
     36      1     25     37       76.30           5000.           73.80    
     37      1     25     38       76.20           5000.           73.70    
     38      1     25     39       76.10           5000.           73.60    
     39      1     25     40       76.00           5000.           73.50    
     40      1     25     41       75.90           5000.           73.40    
     41      1     25     42       75.80           5000.           73.30    
     42      1     25     43       75.70           5000.           73.20    
     43      1     25     44       75.60           5000.           73.10    
     44      1     25     45       75.50           5000.           73.00    
     45      1     25     46       75.40           5000.           72.90    
     46      1     25     47       75.30           5000.           72.80    
     47      1     25     48       75.20           5000.           72.70    
     48      1     25     49       75.10           5000.           72.60    
     49      1     25     50       75.00           5000.           72.50    

     49 RIVER REACHES



                         ET SURFACE
 READING ON UNIT   22 WITH FORMAT: (50E15.6)           



            EVAPOTRANSPIRATION RATE
 READING ON UNIT   22 WITH FORMAT: (50E15.6)           

         EXTINCTION DEPTH =   10.0000    



                           RECHARGE
 READING ON UNIT   19 WITH FORMAT: (50E15.6)           
 
 SOLVING FOR HEAD 

 OUTPUT CONTROL FOR STRESS PERIOD    1   TIME STEP    1
    SAVE HEAD FOR ALL LAYERS
    SAVE DRAWDOWN FOR ALL LAYERS
    SAVE BUDGET
    PRINT HEAD FOR ALL LAYERS
    PRINT BUDGET
 UBDSV2 SAVING "   CONSTANT HEAD" ON UNIT  53 AT TIME STEP  1, STRESS PERIOD   1
 UBDSV1 SAVING "FLOW RIGHT FACE " ON UNIT  53 AT TIME STEP  1, STRESS PERIOD   1
 UBDSV1 SAVING "FLOW FRONT FACE " ON UNIT  53 AT TIME STEP  1, STRESS PERIOD   1
 UBDSV1 SAVING "FLOW LOWER FACE " ON UNIT  53 AT TIME STEP  1, STRESS PERIOD   1
 UBDSV4 SAVING "   RIVER LEAKAGE" ON UNIT  53 AT TIME STEP  1, STRESS PERIOD   1
 UBDSV3 SAVING "              ET" ON UNIT  53 AT TIME STEP  1, STRESS PERIOD   1
 UBDSV3 SAVING "        RECHARGE" ON UNIT  53 AT TIME STEP  1, STRESS PERIOD   1
1
              HEAD IN LAYER   1 AT END OF TIME STEP   1 IN STRESS PERIOD    1
  ---------------------------------------------------------------------------

            1           2           3           4           5           6           7           8           9          10
           11          12          13          14          15          16          17          18          19          20
           21          22          23          24          25          26          27          28          29          30
           31          32          33          34          35          36          37          38          39          40
           41          42          43          44          45          46          47          48          49          50
 ........................................................................................................................
   1  -1000.0     -1000.0     -1000.0     -1000.0     -1000.0     -1000.0     -1000.0     -1000.0     -1000.0     -1000.0    
      -1000.0     -1000.0     -1000.0     -1000.0     -1000.0     -1000.0     -1000.0     -1000.0     -1000.0     -1000.0    
      -1000.0     -1000.0     -1000.0     -1000.0     -1000.0     -1000.0     -1000.0     -1000.0     -1000.0     -1000.0    
      -1000.0     -1000.0     -1000.0     -1000.0     -1000.0     -1000.0     -1000.0     -1000.0     -1000.0     -1000.0    
      -1000.0     -1000.0     -1000.0     -1000.0     -1000.0     -1000.0     -1000.0     -1000.0     -1000.0       70.00    
   2  -1000.0     -1000.0     -1000.0     -1000.0     -1000.0       101.8       101.6       101.1       100.6       99.99    
        99.47       98.84       98.11       97.30       96.41       95.42       94.46       93.52       92.60       91.70    
        90.86       90.04       89.23       88.43       87.64       86.87       86.11       85.36       84.62       83.89    
        83.17       82.46       81.76       81.07       80.38       79.70       79.02       78.35       77.68       77.01    
        76.34       75.66       74.99       74.31       73.62       72.92       72.21       71.49       70.76       70.00    
   3  -1000.0     -1000.0     -1000.0     -1000.0       102.1       101.9       101.6       101.1       100.5       100.0    
        99.47       98.82       98.09       97.28       96.38       95.40       94.43       93.49       92.57       91.67    
        90.83       90.01       89.20       88.40       87.62       86.85       86.09       85.34       84.60       83.87    
        83.15       82.45       81.75       81.05       80.37       79.69       79.01       78.34       77.67       77.00    
        76.33       75.66       74.98       74.30       73.61       72.92       72.21       71.49       70.76       70.00    
   4  -1000.0     -1000.0     -1000.0       102.4       102.2       101.9       101.5       101.0       100.6       100.0    
        99.45       98.79       98.05       97.22       96.32       95.34       94.37       93.43       92.51       91.61    
        90.78       89.96       89.15       88.35       87.57       86.80       86.04       85.29       84.56       83.83    
        83.12       82.41       81.71       81.02       80.34       79.66       78.99       78.32       77.65       76.98    
        76.31       75.64       74.97       74.29       73.61       72.91       72.21       71.49       70.75       70.00    
   5  -1000.0     -1000.0       102.6       102.5       102.2       101.9       101.4       101.0       100.5       100.0    
        99.41       98.73       97.97       97.14       96.23       95.25       94.28       93.34       92.42       91.53    
        90.70       89.88       89.07       88.28       87.50       86.73       85.97       85.23       84.49       83.77    
        83.06       82.36       81.66       80.97       80.29       79.62       78.95       78.28       77.62       76.95    
        76.29       75.62       74.95       74.28       73.59       72.90       72.20       71.48       70.75       70.00    
   6  -1000.0       102.7       102.6       102.4       102.1       101.7       101.4       101.0       100.5       99.95    
        99.33       98.63       97.87       97.03       96.11       95.12       94.16       93.22       92.31       91.41    
        90.59       89.77       88.97       88.18       87.40       86.64       85.88       85.14       84.41       83.69    
        82.98       82.28       81.59       80.91       80.23       79.56       78.90       78.24       77.58       76.92    
        76.26       75.59       74.93       74.26       73.58       72.89       72.19       71.48       70.75       70.00    
   7  -1000.0       102.6       102.5       102.3       102.0       101.7       101.3       100.9       100.4       99.85    
        99.21       98.51       97.72       96.87       95.95       94.96       94.00       93.06       92.16       91.27    
        90.45       89.64       88.84       88.05       87.28       86.52       85.77       85.03       84.30       83.59    
        82.89       82.19       81.51       80.83       80.16       79.50       78.84       78.18       77.53       76.87    
        76.22       75.56       74.90       74.23       73.56       72.87       72.18       71.47       70.74       70.00    
   8  -1000.0       102.5       102.4       102.1       101.9       101.6       101.2       100.8       100.3       99.72    
        99.07       98.34       97.54       96.68       95.75       94.76       93.80       92.87       91.98       91.10    
        90.28       89.48       88.69       87.90       87.13       86.37       85.63       84.90       84.18       83.47    
        82.77       82.08       81.40       80.73       80.07       79.42       78.76       78.11       77.47       76.82    
        76.17       75.52       74.87       74.21       73.54       72.86       72.17       71.46       70.74       70.00    
   9  -1000.0       102.3       102.2       102.0       101.8       101.5       101.1       100.7       100.2       99.56    
        98.89       98.14       97.32       96.44       95.50       94.50       93.56       92.65       91.77       90.90    
        90.09       89.29       88.51       87.73       86.96       86.21       85.47       84.74       84.03       83.32    
        82.63       81.95       81.28       80.62       79.97       79.32       78.68       78.04       77.40       76.76    
        76.12       75.48       74.83       74.18       73.51       72.84       72.15       71.45       70.74       70.00    
  10  -1000.0       102.1       102.0       101.9       101.7       101.4       101.0       100.5       99.98       99.37    
        98.68       97.91       97.05       96.14       95.18       94.20       93.27       92.39       91.52       90.68    
        89.88       89.08       88.30       87.53       86.77       86.02       85.28       84.56       83.85       83.16    
        82.48       81.81       81.15       80.49       79.85       79.21       78.58       77.95       77.32       76.69    
        76.06       75.43       74.79       74.14       73.49       72.82       72.14       71.44       70.73       70.00    
  11  -1000.0       102.0       101.9       101.7       101.5       101.2       100.8       100.3       99.79       99.16    
        98.44       97.64       96.74       95.77       94.76       93.82       92.94       92.10       91.26       90.43    
        89.64       88.85       88.07       87.30       86.55       85.80       85.07       84.36       83.66       82.97    
        82.30       81.64       80.99       80.35       79.72       79.09       78.47       77.85       77.24       76.62    
        76.00       75.38       74.75       74.11       73.46       72.80       72.13       71.44       70.73       70.00    
  12  -1000.0       101.8       101.7       101.6       101.3       101.0       100.6       100.1       99.57       98.92    
        98.18       97.35       96.40       95.32       94.16       93.36       92.58       91.78       90.97       90.16    
        89.38       88.59       87.82       87.05       86.30       85.56       84.83       84.13       83.44       82.76    
        82.10       81.45       80.81       80.19       79.57       78.96       78.35       77.75       77.15       76.54    
        75.94       75.32       74.70       74.08       73.44       72.78       72.11       71.43       70.72       70.00    
  13  -1000.0       101.6       101.5       101.4       101.1       100.8       100.4       99.90       99.33       98.67    
        97.92       97.06       96.06       94.83       93.08       92.86       92.23       91.47       90.68       89.88    
        89.10       88.31       87.54       86.77       86.02       85.29       84.57       83.87       83.19       82.53    
        81.88       81.24       80.62       80.01       79.41       78.81       78.22       77.63       77.05       76.46    
        75.87       75.27       74.66       74.05       73.41       72.77       72.11       71.42       70.72       70.00    
  14  -1000.0       101.4       101.3       101.2       100.9       100.6       100.1       99.65       99.07       98.40    
        97.65       96.79       95.83       94.74       93.57       92.77       91.99       91.20       90.39       89.59    
        88.80       88.01       87.23       86.47       85.72       84.99       84.28       83.59       82.92       82.26    
        81.63       81.01       80.41       79.81       79.23       78.65       78.08       77.51       76.94       76.37    
        75.80       75.22       74.62       74.02       73.40       72.76       72.10       71.42       70.72       70.00    
  15  -1000.0       101.2       101.1       100.9       100.7       100.3       99.89       99.38       98.79       98.12    
        97.37       96.53       95.61       94.61       93.58       92.63       91.76       90.92       90.10       89.29    
        88.48       87.68       86.90       86.13       85.38       84.65       83.95       83.27       82.61       81.98    
        81.36       80.76       80.18       79.60       79.04       78.48       77.93       77.39       76.84       76.29    
        75.73       75.17       74.59       74.00       73.39       72.76       72.11       71.43       70.73       70.00    
  16  -1000.0       101.0       100.9       100.7       100.4       100.1       99.61       99.09       98.49       97.81    
        97.06       96.23       95.34       94.39       93.41       92.41       91.49       90.62       89.78       88.96    
        88.14       87.32       86.53       85.76       85.01       84.28       83.59       82.92       82.28       81.66    
        81.06       80.49       79.92       79.37       78.83       78.30       77.78       77.25       76.73       76.20    
        75.67       75.13       74.57       73.99       73.40       72.77       72.12       71.44       70.74       70.00    
  17  -1000.0       100.7       100.6       100.4       100.1       99.76       99.31       98.77       98.16       97.47    
        96.72       95.90       95.02       94.09       93.11       92.11       91.17       90.28       89.43       88.61    
        87.76       86.93       86.12       85.34       84.59       83.87       83.18       82.53       81.91       81.31    
        80.74       80.19       79.65       79.13       78.62       78.11       77.61       77.12       76.62       76.12    
        75.61       75.10       74.56       74.00       73.42       72.81       72.16       71.47       70.75       70.00    
  18  -1000.0       100.5       100.4       100.2       99.85       99.46       98.98       98.42       97.79       97.09    
        96.33       95.51       94.63       93.71       92.74       91.73       90.78       89.89       89.04       88.22    
        87.34       86.49       85.66       84.87       84.12       83.40       82.73       82.10       81.50       80.93    
        80.38       79.86       79.36       78.86       78.38       77.91       77.45       76.98       76.52       76.05    
        75.57       75.08       74.57       74.04       73.47       72.87       72.22       71.52       70.78       70.00    
  19  -1000.0       100.2       100.1       99.89       99.56       99.13       98.62       98.04       97.38       96.66    
        95.89       95.06       94.18       93.25       92.28       91.28       90.33       89.45       88.61       87.80    
        86.88       85.99       85.15       84.34       83.59       82.88       82.22       81.61       81.04       80.50    
        79.99       79.51       79.04       78.58       78.14       77.71       77.27       76.85       76.42       75.98    
        75.54       75.08       74.61       74.10       73.56       72.96       72.31       71.60       70.83       70.00    
  20  -1000.0       100.0       99.88       99.62       99.25       98.79       98.24       97.61       96.93       96.18    
        95.38       94.54       93.65       92.72       91.75       90.74       89.81       88.95       88.15       87.35    
        86.37       85.43       84.55       83.73       82.97       82.28       81.64       81.07       80.54       80.04    
        79.57       79.13       78.70       78.29       77.89       77.49       77.10       76.71       76.32       75.93    
        75.53       75.11       74.67       74.20       73.69       73.11       72.46       71.73       70.90       70.00    
  21  -1000.0       99.82       99.66       99.36       98.94       98.42       97.82       97.15       96.42       95.64    
        94.82       93.95       93.05       92.10       91.13       90.12       89.20       88.37       87.69       86.91    
        85.77       84.76       83.85       83.01       82.26       81.59       80.99       80.46       79.97       79.53    
        79.11       78.72       78.34       77.97       77.62       77.27       76.93       76.59       76.24       75.90    
        75.54       75.17       74.78       74.35       73.87       73.33       72.69       71.93       71.03       70.00    
  22  -1000.0       99.69       99.49       99.12       98.63       98.03       97.36       96.63       95.85       95.03    
        94.17       93.28       92.35       91.40       90.41       89.40       88.47       87.64       86.97       86.21    
        85.01       83.95       83.01       82.17       81.42       80.78       80.24       79.77       79.35       78.97    
        78.61       78.28       77.96       77.65       77.34       77.05       76.75       76.46       76.17       75.88    
        75.58       75.26       74.92       74.56       74.14       73.64       73.04       72.26       71.25       70.00    
  23  -1000.0       99.67       99.39       98.91       98.31       97.61       96.86       96.06       95.21       94.34    
        93.44       92.52       91.57       90.60       89.60       88.58       87.63       86.75       85.97       85.23    
        84.05       82.99       82.03       81.17       80.43       79.86       79.40       79.01       78.68       78.37    
        78.08       77.82       77.56       77.31       77.07       76.83       76.59       76.36       76.12       75.89    
        75.65       75.39       75.13       74.83       74.49       74.08       73.55       72.81       71.69       70.00    
  24  -1000.0       99.83       99.38       98.73       97.97       97.15       96.29       95.41       94.50       93.57    
        92.62       91.66       90.69       89.71       88.70       87.67       86.69       85.76       84.91       84.17    
        82.94       81.87       80.89       79.99       79.23       78.79       78.45       78.18       77.94       77.73    
        77.53       77.34       77.15       76.97       76.79       76.62       76.45       76.27       76.10       75.93    
        75.75       75.57       75.38       75.17       74.94       74.66       74.28       73.71       72.61       70.00    
  25  -1000.0       100.3       99.49       98.55       97.59       96.62       95.64       94.66       93.67       92.68    
        91.69       90.70       89.70       88.70       87.69       86.68       85.68       84.69       83.71       82.81    
        81.60       80.59       79.59       78.60       77.63       77.55       77.37       77.26       77.15       77.05    
        76.94       76.83       76.73       76.62       76.52       76.41       76.31       76.21       76.10       76.00    
        75.89       75.79       75.68       75.58       75.47       75.36       75.24       75.11       74.85       70.00    
  26  -1000.0       99.95       99.50       98.85       98.10       97.28       96.42       95.54       94.63       93.70    
        92.75       91.79       90.82       89.82       88.81       87.75       86.75       85.80       84.92       84.18    
        82.95       81.90       80.93       80.04       79.28       78.84       78.50       78.24       78.00       77.79    
        77.59       77.40       77.21       77.03       76.85       76.67       76.50       76.32       76.15       75.97    
        75.79       75.60       75.40       75.19       74.95       74.66       74.29       73.71       72.61       70.00    
  27  -1000.0       99.90       99.63       99.15       98.55       97.87       97.12       96.32       95.48       94.61    
        93.72       92.79       91.83       90.85       89.83       88.77       87.77       86.84       85.98       85.24    
        84.10       83.08       82.15       81.30       80.57       80.01       79.55       79.16       78.82       78.51    
        78.23       77.95       77.69       77.44       77.19       76.94       76.70       76.46       76.21       75.97    
        75.71       75.45       75.17       74.86       74.52       74.10       73.56       72.81       71.69       70.00    
  28  -1000.0       100.0       99.84       99.48       98.99       98.41       97.75       97.02       96.25       95.44    
        94.58       93.69       92.76       91.78       90.77       89.71       88.71       87.78       86.92       86.14    
        85.09       84.11       83.21       82.39       81.65       81.02       80.47       80.00       79.58       79.19    
        78.83       78.48       78.15       77.83       77.52       77.21       76.91       76.61       76.31       76.00    
        75.68       75.35       75.00       74.62       74.18       73.68       73.06       72.27       71.26       70.00    
  29  -1000.0       100.3       100.1       99.83       99.42       98.91       98.32       97.67       96.95       96.18    
        95.36       94.50       93.59       92.63       91.63       90.57       89.57       88.63       87.76       86.95    
        85.97       85.03       84.15       83.33       82.58       81.90       81.30       80.76       80.27       79.82    
        79.39       78.98       78.60       78.22       77.85       77.49       77.13       76.78       76.42       76.06    
        75.68       75.30       74.88       74.44       73.95       73.39       72.73       71.96       71.04       70.00    
  30  -1000.0       100.6       100.4       100.2       99.84       99.39       98.86       98.25       97.58       96.85    
        96.07       95.23       94.34       93.40       92.40       91.35       90.35       89.41       88.52       87.68    
        86.74       85.83       84.97       84.15       83.39       82.68       82.04       81.45       80.90       80.39    
        79.91       79.45       79.01       78.58       78.17       77.76       77.35       76.95       76.54       76.13    
        75.71       75.27       74.81       74.32       73.78       73.19       72.52       71.77       70.92       70.00    
  31  -1000.0       100.9       100.8       100.6       100.2       99.83       99.35       98.79       98.15       97.46    
        96.71       95.89       95.02       94.09       93.10       92.05       91.05       90.10       89.20       88.35    
        87.43       86.54       85.69       84.87       84.10       83.37       82.69       82.06       81.47       80.92    
        80.39       79.89       79.40       78.93       78.47       78.01       77.57       77.12       76.67       76.22    
        75.75       75.27       74.77       74.24       73.67       73.06       72.38       71.65       70.85       70.00    
  32  -1000.0       101.2       101.1       100.9       100.6       100.3       99.80       99.27       98.68       98.01    
        97.28       96.49       95.63       94.72       93.74       92.69       91.69       90.74       89.82       88.95    
        88.05       87.17       86.33       85.51       84.72       83.97       83.27       82.61       81.99       81.40    
        80.84       80.29       79.77       79.26       78.76       78.26       77.78       77.29       76.80       76.31    
        75.81       75.29       74.76       74.20       73.61       72.98       72.30       71.58       70.81       70.00    
  33  -1000.0       101.5       101.5       101.3       101.0       100.7       100.2       99.72       99.15       98.51    
        97.80       97.03       96.19       95.28       94.31       93.27       92.27       91.31       90.38       89.50    
        88.61       87.74       86.90       86.08       85.28       84.52       83.80       83.11       82.46       81.84    
        81.24       80.67       80.11       79.56       79.03       78.50       77.98       77.46       76.94       76.42    
        75.88       75.34       74.77       74.19       73.58       72.93       72.25       71.54       70.78       70.00    
  34  -1000.0       101.9       101.8       101.6       101.4       101.0       100.6       100.1       99.58       98.96    
        98.27       97.51       96.68       95.79       94.82       93.79       92.79       91.82       90.89       89.99    
        89.11       88.25       87.41       86.59       85.78       85.01       84.27       83.57       82.89       82.25    
        81.62       81.02       80.43       79.85       79.29       78.73       78.18       77.63       77.08       76.53    
        75.96       75.39       74.80       74.20       73.57       72.92       72.23       71.52       70.77       70.00    
  35  -1000.0       102.2       102.1       101.9       101.7       101.4       101.0       100.5       99.98       99.37    
        98.69       97.95       97.13       96.24       95.29       94.25       93.25       92.29       91.35       90.44    
        89.57       88.71       87.86       87.04       86.23       85.45       84.70       83.98       83.29       82.62    
        81.97       81.34       80.72       80.12       79.53       78.95       78.37       77.79       77.22       76.64    
        76.05       75.46       74.85       74.22       73.58       72.92       72.23       71.51       70.77       70.00    
  36  -1000.0       102.5       102.4       102.2       102.0       101.7       101.3       100.9       100.3       99.75    
        99.08       98.34       97.54       96.66       95.70       94.68       93.68       92.71       91.76       90.85    
        89.98       89.12       88.27       87.45       86.64       85.85       85.09       84.35       83.64       82.95    
        82.29       81.63       81.00       80.37       79.76       79.15       78.55       77.95       77.35       76.75    
        76.14       75.53       74.90       74.26       73.60       72.93       72.23       71.51       70.77       70.00    
  37  -1000.0       102.7       102.7       102.5       102.3       102.0       101.6       101.2       100.7       100.1    
        99.43       98.70       97.90       97.03       96.08       95.05       94.06       93.08       92.14       91.22    
        90.34       89.48       88.64       87.81       87.00       86.21       85.44       84.69       83.97       83.26    
        82.58       81.91       81.25       80.60       79.97       79.34       78.72       78.10       77.48       76.86    
        76.23       75.60       74.96       74.30       73.63       72.95       72.24       71.52       70.77       70.00    
  38  -1000.0       103.0       102.9       102.8       102.6       102.3       101.9       101.5       101.0       100.4    
        99.74       99.02       98.23       97.36       96.42       95.39       94.40       93.42       92.48       91.55    
        90.68       89.81       88.97       88.14       87.32       86.53       85.75       84.99       84.26       83.54    
        82.84       82.15       81.48       80.82       80.17       79.52       78.88       78.24       77.60       76.97    
        76.32       75.67       75.02       74.35       73.67       72.97       72.26       71.53       70.77       70.00    
  39  -1000.0       103.2       103.2       103.0       102.8       102.5       102.2       101.7       101.2       100.7    
        100.0       99.31       98.52       97.66       96.72       95.70       94.70       93.73       92.78       91.85    
        90.97       90.11       89.27       88.43       87.62       86.81       86.03       85.27       84.52       83.79    
        83.08       82.38       81.69       81.01       80.35       79.68       79.03       78.37       77.72       77.07    
        76.41       75.75       75.08       74.40       73.71       73.00       72.28       71.54       70.78       70.00    
  40  -1000.0       103.4       103.4       103.2       103.0       102.7       102.4       102.0       101.5       100.9    
        100.3       99.56       98.78       97.92       96.98       95.97       94.97       94.00       93.05       92.12    
        91.24       90.38       89.53       88.70       87.88       87.07       86.28       85.51       84.76       84.02    
        83.29       82.58       81.88       81.19       80.51       79.83       79.16       78.50       77.83       77.16    
        76.49       75.82       75.13       74.44       73.74       73.03       72.30       71.55       70.79       70.00    
  41  -1000.0       103.6       103.5       103.4       103.2       102.9       102.6       102.1       101.7       101.1    
        100.5       99.78       99.00       98.15       97.22       96.21       95.21       94.24       93.29       92.35    
        91.48       90.62       89.77       88.93       88.11       87.30       86.50       85.73       84.97       84.22    
        83.48       82.76       82.05       81.35       80.66       79.97       79.29       78.61       77.93       77.25    
        76.57       75.88       75.19       74.49       73.78       73.06       72.32       71.57       70.79       70.00    
  42  -1000.0       103.8       103.7       103.5       103.3       103.1       102.7       102.3       101.8       101.3    
        100.7       99.97       99.20       98.35       97.42       96.41       95.42       94.45       93.49       92.56    
        91.69       90.82       89.97       89.13       88.31       87.50       86.70       85.92       85.15       84.40    
        83.65       82.92       82.20       81.49       80.79       80.09       79.40       78.70       78.02       77.33    
        76.63       75.94       75.24       74.53       73.81       73.08       72.34       71.58       70.80       70.00    
  43  -1000.0       104.0       103.9       103.7       103.5       103.2       102.8       102.4       102.0       101.4    
        100.8       100.1       99.36       98.52       97.59       96.59       95.60       94.63       93.67       92.74    
        91.86       91.00       90.15       89.31       88.48       87.67       86.87       86.08       85.31       84.55    
        83.80       83.06       82.33       81.61       80.90       80.19       79.49       78.79       78.09       77.40    
        76.70       75.99       75.28       74.57       73.84       73.11       72.36       71.59       70.81       70.00    
  44  -1000.0       104.1       104.0       103.8       103.6       103.3       102.9       102.5       102.1       101.5    
        100.9       100.3       99.50       98.66       97.74       96.73       95.75       94.78       93.82       92.89    
        92.02       91.15       90.30       89.46       88.63       87.82       87.01       86.22       85.45       84.68    
        83.93       83.18       82.45       81.72       81.00       80.28       79.57       78.87       78.16       77.46    
        76.75       76.04       75.32       74.60       73.87       73.13       72.37       71.60       70.81       70.00    
  45  -1000.0       104.2       104.1       104.0       103.7       103.3       103.0       102.6       102.2       101.6    
        101.0       100.4       99.60       98.77       97.86       96.85       95.87       94.90       93.95       93.01    
        92.14       91.28       90.43       89.58       88.76       87.94       87.13       86.34       85.56       84.79    
        84.03       83.28       82.54       81.81       81.08       80.36       79.64       78.93       78.22       77.51    
        76.79       76.08       75.36       74.63       73.89       73.15       72.39       71.61       70.82       70.00    
  46  -1000.0     -1000.0       104.2       104.0       103.8       103.5       103.0       102.6       102.2       101.7    
        101.1       100.4       99.68       98.86       97.95       96.95       95.97       95.00       94.05       93.11    
        92.24       91.38       90.52       89.68       88.85       88.03       87.23       86.43       85.65       84.87    
        84.11       83.36       82.61       81.87       81.14       80.42       79.70       78.98       78.26       77.55    
        76.83       76.11       75.39       74.65       73.91       73.16       72.40       71.62       70.82       70.00    
  47  -1000.0     -1000.0     -1000.0       104.0       103.8       103.5       103.1       102.7       102.2       101.7    
        101.1       100.5       99.74       98.92       98.01       97.02       96.04       95.07       94.12       93.18    
        92.31       91.45       90.60       89.76       88.93       88.11       87.30       86.50       85.71       84.94    
        84.17       83.42       82.67       81.93       81.19       80.46       79.74       79.02       78.30       77.58    
        76.86       76.13       75.41       74.67       73.93       73.18       72.41       71.63       70.82       70.00    
  48  -1000.0     -1000.0     -1000.0     -1000.0       103.7       103.5       103.2       102.7       102.2       101.7    
        101.1       100.5       99.77       98.96       98.06       97.06       96.08       95.12       94.17       93.23    
        92.36       91.50       90.65       89.81       88.97       88.15       87.34       86.55       85.76       84.98    
        84.21       83.45       82.70       81.96       81.22       80.49       79.77       79.04       78.32       77.60    
        76.88       76.15       75.42       74.68       73.94       73.18       72.41       71.63       70.83       70.00    
  49  -1000.0     -1000.0     -1000.0     -1000.0     -1000.0       103.4       103.2       102.8       102.3       101.7    
        101.1       100.5       99.79       98.98       98.08       97.09       96.11       95.14       94.19       93.26    
        92.39       91.52       90.67       89.83       89.00       88.18       87.37       86.57       85.78       85.00    
        84.23       83.47       82.72       81.98       81.24       80.51       79.78       79.06       78.33       77.61    
        76.89       76.16       75.43       74.69       73.94       73.19       72.42       71.63       70.83       70.00    
  50  -1000.0     -1000.0     -1000.0     -1000.0     -1000.0     -1000.0     -1000.0     -1000.0     -1000.0     -1000.0    
      -1000.0     -1000.0     -1000.0     -1000.0     -1000.0     -1000.0     -1000.0     -1000.0     -1000.0     -1000.0    
      -1000.0     -1000.0     -1000.0     -1000.0     -1000.0     -1000.0     -1000.0     -1000.0     -1000.0     -1000.0    
      -1000.0     -1000.0     -1000.0     -1000.0     -1000.0     -1000.0     -1000.0     -1000.0     -1000.0     -1000.0    
      -1000.0     -1000.0     -1000.0     -1000.0     -1000.0     -1000.0     -1000.0     -1000.0     -1000.0       70.00    
1
              HEAD IN LAYER   2 AT END OF TIME STEP   1 IN STRESS PERIOD    1
  ---------------------------------------------------------------------------

            1           2           3           4           5           6           7           8           9          10
           11          12          13          14          15          16          17          18          19          20
           21          22          23          24          25          26          27          28          29          30
           31          32          33          34          35          36          37          38          39          40
           41          42          43          44          45          46          47          48          49          50
 ........................................................................................................................
   1  -1000.0     -1000.0     -1000.0     -1000.0     -1000.0     -1000.0     -1000.0     -1000.0     -1000.0     -1000.0    
      -1000.0     -1000.0     -1000.0     -1000.0     -1000.0     -1000.0     -1000.0     -1000.0     -1000.0     -1000.0    
      -1000.0     -1000.0     -1000.0     -1000.0     -1000.0     -1000.0     -1000.0     -1000.0     -1000.0     -1000.0    
      -1000.0     -1000.0     -1000.0     -1000.0     -1000.0     -1000.0     -1000.0     -1000.0     -1000.0     -1000.0    
      -1000.0     -1000.0     -1000.0     -1000.0     -1000.0     -1000.0     -1000.0     -1000.0     -1000.0       70.00    
   2  -1000.0     -1000.0     -1000.0     -1000.0     -1000.0     -1000.0     -1000.0       101.1       100.6       99.99    
        99.47       98.84       98.11       97.30       96.41       95.42       94.46       93.52       92.60       91.70    
        90.80       89.92       89.07       88.23       87.42       86.62       85.84       85.07       84.31       83.57    
        82.84       82.12       81.41       80.71       80.02       79.33       78.65       77.98       77.31       76.65    
        75.98       75.32       74.66       74.00       73.34       72.68       72.01       71.35       70.67       70.00    
   3  -1000.0     -1000.0     -1000.0     -1000.0     -1000.0     -1000.0       101.6       101.1       100.5       100.0    
        99.47       98.82       98.09       97.28       96.38       95.40       94.43       93.49       92.57       91.67    
        90.77       89.90       89.04       88.21       87.40       86.60       85.82       85.05       84.30       83.55    
        82.82       82.11       81.40       80.70       80.00       79.32       78.64       77.97       77.30       76.64    
        75.98       75.32       74.66       74.00       73.34       72.68       72.01       71.34       70.67       70.00    
   4  -1000.0     -1000.0     -1000.0     -1000.0     -1000.0       101.9       101.5       101.0       100.6       100.0    
        99.45       98.79       98.05       97.22       96.32       95.34       94.37       93.43       92.51       91.61    
        90.72       89.84       88.99       88.16       87.35       86.56       85.78       85.01       84.26       83.52    
        82.79       82.07       81.37       80.67       79.98       79.30       78.62       77.95       77.28       76.62    
        75.96       75.30       74.65       73.99       73.33       72.67       72.01       71.34       70.67       70.00    
   5  -1000.0     -1000.0     -1000.0     -1000.0       102.2       101.9       101.4       101.0       100.5       100.0    
        99.41       98.73       97.97       97.14       96.23       95.25       94.28       93.34       92.42       91.53    
        90.63       89.77       88.92       88.09       87.28       86.49       85.71       84.95       84.20       83.47    
        82.74       82.03       81.32       80.63       79.94       79.26       78.58       77.92       77.25       76.59    
        75.94       75.28       74.63       73.97       73.32       72.66       72.00       71.34       70.67       70.00    
   6  -1000.0     -1000.0     -1000.0       102.4       102.1       101.7       101.4       101.0       100.5       99.95    
        99.33       98.63       97.87       97.03       96.11       95.12       94.16       93.22       92.31       91.41    
        90.53       89.66       88.82       88.00       87.19       86.41       85.63       84.87       84.13       83.39    
        82.67       81.96       81.26       80.57       79.88       79.21       78.54       77.87       77.21       76.56    
        75.91       75.25       74.60       73.95       73.30       72.65       71.99       71.33       70.67       70.00    
   7  -1000.0     -1000.0       102.5       102.3       102.0       101.7       101.3       100.9       100.4       99.85    
        99.21       98.51       97.72       96.87       95.95       94.96       94.00       93.06       92.16       91.27    
        90.39       89.53       88.70       87.88       87.08       86.30       85.53       84.78       84.04       83.31    
        82.59       81.88       81.19       80.50       79.82       79.15       78.48       77.82       77.17       76.51    
        75.87       75.22       74.57       73.93       73.28       72.63       71.98       71.32       70.66       70.00    
   8  -1000.0       102.5       102.4       102.1       101.9       101.6       101.2       100.8       100.3       99.72    
        99.07       98.34       97.54       96.68       95.75       94.76       93.80       92.87       91.98       91.10    
        90.23       89.38       88.55       87.74       86.95       86.17       85.41       84.66       83.92       83.20    
        82.49       81.79       81.10       80.41       79.74       79.07       78.41       77.76       77.11       76.46    
        75.82       75.18       74.54       73.90       73.26       72.61       71.96       71.31       70.66       70.00    
   9  -1000.0       102.3       102.2       102.0       101.8       101.5       101.1       100.7       100.2       99.56    
        98.89       98.14       97.32       96.44       95.50       94.50       93.56       92.65       91.77       90.90    
        90.04       89.20       88.38       87.58       86.79       86.02       85.27       84.52       83.79       83.08    
        82.37       81.68       80.99       80.31       79.65       78.99       78.33       77.68       77.04       76.40    
        75.77       75.13       74.50       73.86       73.23       72.59       71.95       71.30       70.65       70.00    
  10  -1000.0       102.1       102.0       101.9       101.7       101.4       101.0       100.5       99.98       99.37    
        98.68       97.90       97.05       96.14       95.18       94.20       93.27       92.39       91.52       90.68    
        89.83       89.00       88.19       87.40       86.62       85.85       85.11       84.37       83.65       82.94    
        82.24       81.55       80.87       80.20       79.54       78.89       78.24       77.60       76.96       76.33    
        75.70       75.08       74.45       73.82       73.20       72.56       71.93       71.29       70.65       70.00    
  11  -1000.0       102.0       101.9       101.7       101.5       101.2       100.8       100.3       99.79       99.16    
        98.44       97.64       96.74       95.77       94.76       93.82       92.94       92.10       91.26       90.43    
        89.59       88.78       87.98       87.19       86.42       85.67       84.93       84.20       83.48       82.78    
        82.09       81.41       80.74       80.08       79.42       78.78       78.14       77.51       76.88       76.26    
        75.64       75.02       74.40       73.78       73.16       72.54       71.91       71.28       70.64       70.00    
  12  -1000.0       101.8       101.7       101.6       101.3       101.0       100.6       100.1       99.57       98.92    
        98.18       97.35       96.40       95.32       94.16       93.36       92.58       91.78       90.97       90.16    
        89.34       88.53       87.74       86.97       86.21       85.46       84.73       84.01       83.30       82.61    
        81.93       81.25       80.59       79.94       79.29       78.65       78.02       77.40       76.78       76.17    
        75.56       74.95       74.35       73.74       73.13       72.51       71.89       71.26       70.63       70.00    
  13  -1000.0       101.6       101.5       101.4       101.1       100.8       100.4       99.90       99.33       98.67    
        97.92       97.06       96.06       94.83       93.08       92.86       92.23       91.47       90.68       89.88    
        89.07       88.27       87.49       86.72       85.97       85.23       84.51       83.80       83.10       82.42    
        81.75       81.08       80.43       79.79       79.15       78.52       77.90       77.29       76.68       76.08    
        75.48       74.88       74.29       73.69       73.09       72.48       71.87       71.25       70.63       70.00    
  14  -1000.0       101.4       101.3       101.2       100.9       100.6       100.1       99.65       99.07       98.40    
        97.65       96.79       95.83       94.74       93.57       92.77       91.99       91.20       90.39       89.59    
        88.78       87.99       87.22       86.46       85.71       84.99       84.27       83.58       82.89       82.22    
        81.55       80.90       80.26       79.62       79.00       78.38       77.77       77.16       76.57       75.98    
        75.39       74.81       74.23       73.64       73.05       72.46       71.85       71.24       70.62       70.00    
  15  -1000.0       101.2       101.1       100.9       100.7       100.3       99.89       99.38       98.79       98.12    
        97.37       96.53       95.61       94.61       93.58       92.63       91.76       90.92       90.10       89.29    
        88.48       87.69       86.92       86.17       85.44       84.72       84.02       83.33       82.66       82.00    
        81.35       80.71       80.07       79.45       78.83       78.22       77.62       77.03       76.45       75.87    
        75.30       74.74       74.17       73.60       73.02       72.43       71.83       71.23       70.62       70.00    
  16  -1000.0       101.0       100.9       100.7       100.4       100.0       99.61       99.09       98.49       97.81    
        97.06       96.23       95.34       94.39       93.41       92.41       91.49       90.62       89.78       88.96    
        88.15       87.37       86.60       85.86       85.14       84.44       83.75       83.08       82.42       81.77    
        81.13       80.50       79.88       79.27       78.66       78.06       77.47       76.89       76.32       75.76    
        75.21       74.66       74.11       73.55       72.99       72.41       71.82       71.22       70.61       70.00    
  17  -1000.0       100.7       100.6       100.4       100.1       99.76       99.31       98.77       98.16       97.47    
        96.72       95.90       95.02       94.09       93.11       92.11       91.17       90.28       89.43       88.61    
        87.80       87.02       86.26       85.53       84.82       84.13       83.46       82.80       82.16       81.53    
        80.90       80.29       79.68       79.08       78.48       77.89       77.31       76.75       76.19       75.65    
        75.11       74.58       74.05       73.51       72.96       72.40       71.82       71.22       70.61       70.00    
  18  -1000.0       100.5       100.4       100.2       99.85       99.46       98.98       98.42       97.79       97.09    
        96.33       95.51       94.63       93.71       92.74       91.73       90.78       89.89       89.04       88.22    
        87.41       86.64       85.90       85.18       84.49       83.81       83.16       82.52       81.89       81.28    
        80.67       80.07       79.48       78.89       78.30       77.72       77.15       76.59       76.05       75.53    
        75.02       74.51       74.00       73.48       72.95       72.40       71.82       71.23       70.62       70.00    
  19  -1000.0       100.2       100.1       99.89       99.56       99.13       98.62       98.04       97.38       96.66    
        95.89       95.06       94.18       93.25       92.28       91.28       90.33       89.45       88.61       87.80    
        87.00       86.23       85.50       84.80       84.13       83.48       82.84       82.22       81.62       81.02    
        80.44       79.85       79.27       78.70       78.12       77.55       76.99       76.44       75.91       75.41    
        74.93       74.45       73.97       73.47       72.95       72.41       71.84       71.24       70.63       70.00    
  20  -1000.0       100.0       99.88       99.62       99.25       98.79       98.24       97.61       96.93       96.18    
        95.38       94.54       93.65       92.72       91.75       90.74       89.81       88.95       88.15       87.35    
        86.55       85.79       85.09       84.41       83.76       83.13       82.52       81.93       81.34       80.77    
        80.20       79.64       79.08       78.52       77.95       77.39       76.83       76.29       75.77       75.30    
        74.85       74.40       73.94       73.47       72.97       72.44       71.87       71.27       70.65       70.00    
  21  -1000.0       99.82       99.66       99.36       98.94       98.42       97.82       97.15       96.42       95.64    
        94.82       93.95       93.05       92.10       91.13       90.12       89.20       88.37       87.69       86.91    
        86.05       85.32       84.64       84.00       83.38       82.78       82.20       81.63       81.08       80.53    
        79.98       79.44       78.90       78.35       77.81       77.25       76.70       76.16       75.65       75.20    
        74.79       74.38       73.95       73.49       73.01       72.49       71.93       71.32       70.67       70.00    
  22  -1000.0       99.69       99.49       99.12       98.63       98.03       97.36       96.63       95.85       95.03    
        94.17       93.28       92.35       91.40       90.41       89.40       88.47       87.64       86.97       86.21    
        85.45       84.79       84.18       83.59       83.01       82.45       81.90       81.36       80.83       80.31    
        79.79       79.27       78.75       78.22       77.69       77.15       76.61       76.07       75.55       75.15    
        74.77       74.38       73.98       73.54       73.07       72.56       72.00       71.39       70.71       70.00    
  23  -1000.0       99.67       99.39       98.91       98.31       97.61       96.86       96.05       95.21       94.34    
        93.44       92.52       91.57       90.60       89.60       88.58       87.63       86.75       85.97       85.23    
        84.74       84.26       83.75       83.22       82.68       82.15       81.63       81.13       80.62       80.12    
        79.63       79.13       78.63       78.12       77.61       77.10       76.58       76.07       75.60       75.19    
        74.81       74.43       74.03       73.61       73.15       72.65       72.10       71.47       70.77       70.00    
  24  -1000.0       99.83       99.38       98.73       97.97       97.15       96.29       95.41       94.50       93.57    
        92.62       91.66       90.69       89.70       88.70       87.67       86.69       85.76       84.91       84.17    
        84.07       83.81       83.41       82.94       82.44       81.94       81.45       80.96       80.48       80.00    
        79.52       79.05       78.56       78.08       77.59       77.10       76.61       76.13       75.68       75.27    
        74.88       74.50       74.11       73.69       73.24       72.75       72.19       71.57       70.84       70.00    
  25  -1000.0       100.3       99.49       98.56       97.60       96.62       95.65       94.66       93.68       92.69    
        91.69       90.70       89.70       88.70       87.70       86.68       85.68       84.69       83.71       82.81    
        83.61       83.59       83.27       82.83       82.34       81.86       81.38       80.91       80.44       79.98    
        79.51       79.04       78.57       78.09       77.62       77.14       76.67       76.22       75.78       75.36    
        74.97       74.58       74.17       73.75       73.30       72.81       72.26       71.63       70.90       70.00    
  26  -1000.0       99.95       99.50       98.85       98.10       97.28       96.42       95.53       94.63       93.70    
        92.75       91.79       90.82       89.82       88.81       87.75       86.75       85.80       84.92       84.18    
        84.09       83.85       83.47       83.00       82.51       82.02       81.53       81.04       80.57       80.09    
        79.62       79.14       78.67       78.20       77.72       77.25       76.78       76.33       75.89       75.46    
        75.05       74.63       74.21       73.77       73.30       72.79       72.23       71.59       70.85       70.00    
  27  -1000.0       99.90       99.62       99.15       98.55       97.87       97.12       96.32       95.48       94.61    
        93.71       92.79       91.83       90.85       89.83       88.77       87.77       86.84       85.98       85.24    
        84.80       84.35       83.87       83.36       82.83       82.31       81.80       81.29       80.79       80.30    
        79.81       79.32       78.84       78.35       77.87       77.39       76.92       76.46       76.00       75.56    
        75.12       74.68       74.23       73.77       73.27       72.74       72.16       71.51       70.79       70.00    
  28  -1000.0       100.0       99.84       99.48       98.99       98.41       97.75       97.02       96.25       95.44    
        94.58       93.69       92.75       91.78       90.77       89.71       88.71       87.78       86.92       86.14    
        85.53       84.95       84.38       83.81       83.25       82.69       82.14       81.61       81.08       80.57    
        80.05       79.55       79.05       78.55       78.05       77.56       77.08       76.60       76.12       75.66    
        75.20       74.73       74.25       73.76       73.24       72.69       72.09       71.44       70.74       70.00    
  29  -1000.0       100.3       100.1       99.83       99.42       98.91       98.32       97.67       96.95       96.18    
        95.36       94.50       93.59       92.63       91.63       90.57       89.57       88.63       87.76       86.95    
        86.24       85.57       84.93       84.31       83.70       83.11       82.53       81.96       81.41       80.87    
        80.33       79.80       79.28       78.76       78.25       77.74       77.24       76.74       76.25       75.76    
        75.27       74.78       74.28       73.76       73.22       72.65       72.04       71.39       70.71       70.00    
  30  -1000.0       100.6       100.4       100.2       99.84       99.39       98.86       98.25       97.58       96.85    
        96.07       95.23       94.34       93.40       92.40       91.35       90.35       89.41       88.52       87.68    
        86.91       86.18       85.49       84.82       84.17       83.54       82.93       82.33       81.75       81.18    
        80.62       80.07       79.53       78.99       78.46       77.93       77.41       76.89       76.38       75.86    
        75.35       74.83       74.31       73.77       73.21       72.62       72.00       71.36       70.69       70.00    
  31  -1000.0       100.9       100.8       100.6       100.2       99.83       99.35       98.79       98.15       97.46    
        96.71       95.89       95.02       94.09       93.10       92.05       91.05       90.10       89.20       88.35    
        87.53       86.76       86.02       85.32       84.63       83.97       83.33       82.71       82.10       81.50    
        80.92       80.34       79.78       79.22       78.66       78.12       77.58       77.04       76.50       75.97    
        75.43       74.89       74.34       73.78       73.20       72.61       71.98       71.34       70.68       70.00    
  32  -1000.0       101.2       101.1       100.9       100.6       100.3       99.80       99.27       98.68       98.01    
        97.28       96.49       95.63       94.72       93.74       92.69       91.69       90.73       89.82       88.95    
        88.10       87.30       86.53       85.79       85.08       84.39       83.72       83.07       82.44       81.82    
        81.21       80.61       80.02       79.45       78.87       78.31       77.74       77.19       76.63       76.08    
        75.52       74.96       74.39       73.81       73.22       72.60       71.98       71.33       70.67       70.00    
  33  -1000.0       101.5       101.5       101.3       101.0       100.7       100.2       99.72       99.15       98.51    
        97.80       97.03       96.19       95.28       94.31       93.27       92.27       91.31       90.38       89.50    
        88.63       87.80       87.01       86.24       85.51       84.79       84.10       83.42       82.77       82.12    
        81.49       80.88       80.27       79.67       79.08       78.49       77.91       77.33       76.76       76.18    
        75.61       75.03       74.44       73.84       73.24       72.61       71.98       71.33       70.67       70.00    
  34  -1000.0       101.9       101.8       101.6       101.4       101.0       100.6       100.1       99.58       98.96    
        98.27       97.51       96.68       95.79       94.82       93.79       92.79       91.82       90.89       89.99    
        89.11       88.26       87.45       86.67       85.91       85.17       84.45       83.76       83.08       82.42    
        81.77       81.13       80.50       79.88       79.27       78.67       78.07       77.47       76.88       76.29    
        75.69       75.10       74.49       73.88       73.26       72.63       71.99       71.33       70.67       70.00    
  35  -1000.0       102.2       102.1       101.9       101.7       101.4       101.0       100.5       99.98       99.37    
        98.69       97.95       97.13       96.24       95.29       94.25       93.25       92.29       91.35       90.44    
        89.55       88.69       87.86       87.06       86.28       85.52       84.79       84.07       83.38       82.70    
        82.03       81.37       80.73       80.09       79.46       78.84       78.22       77.61       77.00       76.39    
        75.78       75.17       74.55       73.93       73.29       72.65       72.00       71.34       70.67       70.00    
  36  -1000.0       102.5       102.4       102.2       102.0       101.7       101.3       100.9       100.3       99.74    
        99.08       98.34       97.54       96.66       95.70       94.68       93.68       92.71       91.76       90.85    
        89.95       89.07       88.23       87.41       86.62       85.85       85.10       84.37       83.66       82.96    
        82.27       81.60       80.94       80.29       79.64       79.00       78.37       77.74       77.12       76.49    
        75.87       75.24       74.61       73.97       73.33       72.68       72.02       71.35       70.68       70.00    
  37  -1000.0       102.7       102.7       102.5       102.3       102.0       101.6       101.2       100.7       100.1    
        99.43       98.70       97.90       97.03       96.08       95.05       94.06       93.08       92.14       91.22    
        90.31       89.42       88.57       87.74       86.94       86.15       85.39       84.64       83.91       83.20    
        82.50       81.81       81.14       80.47       79.81       79.16       78.51       77.87       77.23       76.59    
        75.95       75.31       74.67       74.02       73.37       72.71       72.04       71.36       70.68       70.00    
  38  -1000.0       103.0       102.9       102.8       102.6       102.3       101.9       101.5       101.0       100.4    
        99.74       99.02       98.23       97.36       96.42       95.39       94.40       93.42       92.48       91.55    
        90.63       89.74       88.88       88.04       87.23       86.43       85.65       84.90       84.15       83.43    
        82.71       82.01       81.32       80.64       79.97       79.30       78.64       77.99       77.34       76.68    
        76.03       75.38       74.73       74.07       73.40       72.73       72.06       71.38       70.69       70.00    
  39  -1000.0       103.2       103.2       103.0       102.8       102.5       102.2       101.7       101.2       100.7    
        100.0       99.31       98.52       97.66       96.72       95.70       94.70       93.73       92.78       91.85    
        90.93       90.03       89.16       88.31       87.49       86.68       85.90       85.13       84.37       83.63    
        82.91       82.20       81.49       80.80       80.12       79.44       78.77       78.10       77.43       76.77    
        76.11       75.45       74.78       74.11       73.44       72.76       72.08       71.39       70.70       70.00    
  40  -1000.0       103.4       103.4       103.2       103.0       102.7       102.4       102.0       101.5       100.9    
        100.3       99.56       98.78       97.92       96.98       95.97       94.97       94.00       93.05       92.12    
        91.19       90.29       89.41       88.56       87.72       86.91       86.11       85.33       84.57       83.82    
        83.09       82.36       81.65       80.95       80.25       79.56       78.88       78.20       77.53       76.85    
        76.18       75.51       74.83       74.16       73.48       72.79       72.10       71.40       70.70       70.00    
  41  -1000.0       103.6       103.5       103.4       103.2       102.9       102.6       102.1       101.7       101.1    
        100.5       99.78       99.00       98.15       97.22       96.21       95.21       94.24       93.29       92.35    
        91.42       90.52       89.63       88.77       87.93       87.11       86.31       85.52       84.75       83.99    
        83.25       82.51       81.79       81.08       80.37       79.67       78.98       78.29       77.61       76.93    
        76.25       75.57       74.88       74.20       73.51       72.82       72.12       71.42       70.71       70.00    
  42  -1000.0       103.8       103.7       103.5       103.3       103.1       102.7       102.3       101.8       101.3    
        100.7       99.97       99.20       98.35       97.42       96.41       95.42       94.45       93.49       92.56    
        91.63       90.72       89.83       88.97       88.12       87.29       86.48       85.69       84.91       84.14    
        83.39       82.65       81.92       81.19       80.48       79.77       79.07       78.38       77.69       76.99    
        76.31       75.62       74.93       74.23       73.54       72.84       72.14       71.43       70.72       70.00    
  43  -1000.0       104.0       103.9       103.7       103.5       103.2       102.8       102.4       102.0       101.4    
        100.8       100.1       99.36       98.52       97.59       96.59       95.60       94.63       93.67       92.74    
        91.80       90.89       90.00       89.13       88.28       87.45       86.63       85.83       85.04       84.27    
        83.51       82.76       82.03       81.30       80.58       79.86       79.15       78.45       77.75       77.05    
        76.36       75.66       74.97       74.27       73.57       72.86       72.15       71.44       70.72       70.00    
  44  -1000.0     -1000.0       104.0       103.8       103.6       103.3       102.9       102.5       102.1       101.5    
        100.9       100.3       99.50       98.66       97.74       96.73       95.75       94.78       93.82       92.89    
        91.95       91.04       90.15       89.27       88.42       87.58       86.76       85.95       85.16       84.38    
        83.62       82.86       82.12       81.38       80.66       79.94       79.22       78.51       77.81       77.11    
        76.40       75.70       75.00       74.30       73.59       72.88       72.17       71.45       70.72       70.00    
  45  -1000.0     -1000.0     -1000.0       104.0       103.7       103.3       103.0       102.6       102.2       101.6    
        101.0       100.4       99.60       98.77       97.86       96.85       95.87       94.90       93.95       93.01    
        92.07       91.16       90.26       89.39       88.53       87.69       86.87       86.06       85.26       84.48    
        83.71       82.95       82.20       81.46       80.73       80.00       79.28       78.57       77.86       77.15    
        76.44       75.74       75.03       74.32       73.61       72.90       72.18       71.46       70.73       70.00    
  46  -1000.0     -1000.0     -1000.0     -1000.0       103.8       103.5       103.0       102.6       102.2       101.7    
        101.1       100.4       99.68       98.86       97.95       96.95       95.97       95.00       94.05       93.11    
        92.17       91.26       90.36       89.48       88.62       87.78       86.95       86.14       85.34       84.55    
        83.78       83.01       82.26       81.52       80.78       80.05       79.33       78.61       77.90       77.18    
        76.47       75.76       75.05       74.34       73.63       72.91       72.19       71.46       70.73       70.00    
  47  -1000.0     -1000.0     -1000.0     -1000.0     -1000.0       103.5       103.1       102.7       102.2       101.7    
        101.1       100.5       99.74       98.92       98.01       97.02       96.04       95.07       94.12       93.18    
        92.25       91.33       90.43       89.55       88.69       87.84       87.01       86.20       85.40       84.61    
        83.83       83.07       82.31       81.56       80.82       80.09       79.36       78.64       77.93       77.21    
        76.50       75.78       75.07       74.36       73.64       72.92       72.20       71.47       70.73       70.00    
  48  -1000.0     -1000.0     -1000.0     -1000.0     -1000.0     -1000.0       103.2       102.7       102.2       101.7    
        101.1       100.5       99.77       98.96       98.06       97.06       96.08       95.12       94.17       93.23    
        92.29       91.38       90.48       89.60       88.73       87.89       87.06       86.24       85.44       84.65    
        83.87       83.10       82.34       81.59       80.85       80.12       79.39       78.66       77.94       77.23    
        76.51       75.80       75.08       74.37       73.65       72.93       72.20       71.47       70.74       70.00    
  49  -1000.0     -1000.0     -1000.0     -1000.0     -1000.0     -1000.0     -1000.0       102.8       102.3       101.7    
        101.1       100.5       99.79       98.98       98.08       97.09       96.11       95.14       94.19       93.26    
        92.32       91.40       90.50       89.62       88.76       87.91       87.08       86.26       85.46       84.66    
        83.88       83.12       82.36       81.61       80.86       80.13       79.40       78.68       77.95       77.24    
        76.52       75.81       75.09       74.37       73.65       72.93       72.20       71.47       70.74       70.00    
  50  -1000.0     -1000.0     -1000.0     -1000.0     -1000.0     -1000.0     -1000.0     -1000.0     -1000.0     -1000.0    
      -1000.0     -1000.0     -1000.0     -1000.0     -1000.0     -1000.0     -1000.0     -1000.0     -1000.0     -1000.0    
      -1000.0     -1000.0     -1000.0     -1000.0     -1000.0     -1000.0     -1000.0     -1000.0     -1000.0     -1000.0    
      -1000.0     -1000.0     -1000.0     -1000.0     -1000.0     -1000.0     -1000.0     -1000.0     -1000.0     -1000.0    
      -1000.0     -1000.0     -1000.0     -1000.0     -1000.0     -1000.0     -1000.0     -1000.0     -1000.0       70.00    
1
              HEAD IN LAYER   3 AT END OF TIME STEP   1 IN STRESS PERIOD    1
  ---------------------------------------------------------------------------

            1           2           3           4           5           6           7           8           9          10
           11          12          13          14          15          16          17          18          19          20
           21          22          23          24          25          26          27          28          29          30
           31          32          33          34          35          36          37          38          39          40
[...]
        85.05       84.84       84.56       84.21       83.79       83.32       82.82       82.27       81.70       81.09    
        80.46       79.80       79.11       78.38       77.60       76.76       75.82       74.76       73.69       73.62    
        73.55       73.36       73.07       72.72       72.33       71.90       71.44       70.97       70.49       70.00    
  24  -1000.0       99.83       99.38       98.73       97.97       97.15       96.29       95.41       94.50       93.57    
        92.62       91.66       90.69       89.70       88.70       87.66       86.69       85.76       84.91       84.17    
        84.42       84.48       84.34       84.07       83.70       83.27       82.78       82.25       81.68       81.09    
        80.47       79.82       79.14       78.44       77.69       76.91       76.09       75.25       74.52       74.12    
        73.82       73.51       73.17       72.78       72.37       71.93       71.46       70.98       70.50       70.00    
  25  -1000.0       100.3       99.49       98.56       97.60       96.63       95.65       94.67       93.68       92.69    
        91.70       90.70       89.70       88.70       87.70       86.68       85.68       84.69       83.71       82.81    
        84.00       84.32       84.27       84.04       83.70       83.27       82.79       82.27       81.71       81.13    
        80.51       79.88       79.22       78.53       77.82       77.10       76.36       75.64       75.01       74.51    
        74.09       73.69       73.29       72.87       72.43       71.97       71.49       71.00       70.50       70.00    
  26  -1000.0       99.95       99.50       98.85       98.10       97.28       96.42       95.53       94.63       93.70    
        92.75       91.79       90.82       89.82       88.81       87.75       86.75       85.80       84.92       84.18    
        84.45       84.52       84.40       84.14       83.78       83.35       82.87       82.34       81.79       81.20    
        80.59       79.97       79.32       78.65       77.98       77.29       76.61       75.95       75.35       74.81    
        74.33       73.87       73.42       72.97       72.50       72.02       71.53       71.02       70.51       70.00    
  27  -1000.0       99.90       99.62       99.15       98.55       97.87       97.12       96.32       95.48       94.61    
        93.71       92.79       91.83       90.85       89.83       88.77       87.77       86.84       85.98       85.24    
        85.10       84.93       84.68       84.35       83.95       83.49       82.99       82.46       81.90       81.31    
        80.70       80.08       79.44       78.80       78.14       77.48       76.83       76.20       75.61       75.06    
        74.54       74.04       73.55       73.06       72.57       72.07       71.56       71.05       70.52       70.00    
  28  -1000.0       100.0       99.84       99.48       98.99       98.41       97.75       97.02       96.25       95.44    
        94.58       93.69       92.75       91.78       90.77       89.71       88.71       87.78       86.92       86.14    
        85.78       85.43       85.05       84.64       84.19       83.69       83.17       82.62       82.04       81.45    
        80.84       80.22       79.59       78.95       78.31       77.67       77.03       76.42       75.82       75.26    
        74.72       74.19       73.67       73.16       72.65       72.13       71.60       71.07       70.54       70.00    
  29  -1000.0       100.3       100.1       99.83       99.42       98.91       98.32       97.67       96.95       96.18    
        95.36       94.50       93.59       92.63       91.63       90.57       89.57       88.63       87.76       86.95    
        86.43       85.95       85.47       84.98       84.47       83.93       83.38       82.80       82.22       81.61    
        81.00       80.37       79.74       79.11       78.47       77.84       77.22       76.61       76.01       75.43    
        74.88       74.33       73.79       73.25       72.72       72.18       71.64       71.10       70.55       70.00    
  30  -1000.0       100.6       100.4       100.2       99.84       99.39       98.86       98.25       97.58       96.85    
        96.07       95.23       94.34       93.40       92.40       91.35       90.35       89.41       88.52       87.68    
        87.06       86.47       85.91       85.35       84.78       84.20       83.62       83.02       82.41       81.79    
        81.17       80.54       79.91       79.28       78.64       78.01       77.39       76.78       76.18       75.59    
        75.02       74.45       73.89       73.34       72.79       72.23       71.68       71.12       70.56       70.00    
  31  -1000.0       100.9       100.8       100.6       100.2       99.83       99.35       98.78       98.15       97.46    
        96.71       95.89       95.02       94.09       93.10       92.05       91.05       90.10       89.20       88.35    
        87.64       86.98       86.34       85.72       85.11       84.49       83.87       83.25       82.62       81.99    
        81.35       80.72       80.08       79.44       78.81       78.18       77.55       76.94       76.33       75.73    
        75.15       74.57       73.99       73.42       72.85       72.28       71.72       71.14       70.57       70.00    
  32  -1000.0       101.2       101.1       100.9       100.6       100.3       99.80       99.27       98.68       98.01    
        97.28       96.49       95.63       94.72       93.74       92.69       91.69       90.73       89.82       88.95    
        88.18       87.46       86.77       86.10       85.44       84.79       84.14       83.49       82.84       82.19    
        81.55       80.90       80.25       79.61       78.97       78.33       77.70       77.08       76.47       75.86    
        75.26       74.67       74.08       73.50       72.92       72.33       71.75       71.17       70.58       70.00    
  33  -1000.0       101.5       101.5       101.3       101.0       100.7       100.2       99.72       99.15       98.51    
        97.80       97.03       96.19       95.28       94.31       93.27       92.27       91.31       90.38       89.50    
        88.69       87.92       87.18       86.47       85.77       85.08       84.40       83.73       83.06       82.40    
        81.74       81.08       80.43       79.77       79.13       78.49       77.85       77.22       76.60       75.98    
        75.37       74.77       74.17       73.57       72.97       72.38       71.78       71.19       70.60       70.00    
  34  -1000.0       101.9       101.8       101.6       101.4       101.0       100.6       100.1       99.58       98.96    
        98.27       97.51       96.68       95.79       94.82       93.79       92.79       91.82       90.89       89.99    
        89.15       88.34       87.57       86.82       86.09       85.37       84.67       83.97       83.29       82.61    
        81.93       81.26       80.60       79.94       79.28       78.63       77.99       77.35       76.72       76.09    
        75.47       74.86       74.25       73.64       73.03       72.42       71.82       71.21       70.61       70.00    
  35  -1000.0       102.2       102.1       101.9       101.7       101.4       101.0       100.5       99.98       99.37    
        98.69       97.95       97.13       96.24       95.29       94.25       93.25       92.29       91.35       90.44    
        89.57       88.73       87.93       87.15       86.39       85.65       84.93       84.21       83.51       82.81    
        82.12       81.44       80.76       80.09       79.43       78.77       78.12       77.47       76.83       76.20    
        75.57       74.94       74.32       73.70       73.08       72.46       71.85       71.23       70.62       70.00    
  36  -1000.0       102.5       102.4       102.2       102.0       101.7       101.3       100.9       100.3       99.74    
        99.08       98.34       97.54       96.66       95.70       94.68       93.68       92.71       91.76       90.85    
        89.96       89.10       88.27       87.46       86.68       85.92       85.17       84.44       83.72       83.01    
        82.31       81.61       80.92       80.24       79.57       78.90       78.24       77.59       76.94       76.30    
        75.66       75.02       74.39       73.76       73.13       72.50       71.88       71.25       70.63       70.00    
  37  -1000.0       102.7       102.7       102.5       102.3       102.0       101.6       101.2       100.7       100.1    
        99.43       98.70       97.90       97.03       96.08       95.05       94.06       93.08       92.14       91.22    
        90.31       89.43       88.58       87.76       86.95       86.17       85.41       84.66       83.92       83.20    
        82.48       81.78       81.08       80.39       79.71       79.03       78.36       77.70       77.04       76.39    
        75.74       75.09       74.45       73.81       73.17       72.54       71.90       71.27       70.63       70.00    
  38  -1000.0       103.0       102.9       102.8       102.6       102.3       101.9       101.5       101.0       100.4    
        99.74       99.02       98.23       97.36       96.42       95.39       94.40       93.42       92.48       91.55    
        90.63       89.73       88.87       88.02       87.21       86.41       85.63       84.86       84.11       83.38    
        82.65       81.93       81.22       80.52       79.83       79.15       78.47       77.80       77.13       76.47    
        75.81       75.16       74.51       73.86       73.22       72.57       71.93       71.29       70.64       70.00    
  39  -1000.0       103.2       103.2       103.0       102.8       102.5       102.2       101.7       101.2       100.7    
        100.0       99.31       98.52       97.66       96.72       95.70       94.70       93.73       92.78       91.85    
        90.91       90.01       89.13       88.27       87.44       86.63       85.83       85.05       84.29       83.54    
        82.80       82.08       81.36       80.65       79.95       79.26       78.57       77.89       77.22       76.55    
        75.88       75.22       74.57       73.91       73.26       72.60       71.95       71.30       70.65       70.00    
  40  -1000.0       103.4       103.4       103.2       103.0       102.7       102.4       102.0       101.5       100.9    
        100.3       99.56       98.78       97.92       96.98       95.97       94.97       94.00       93.05       92.12    
        91.17       90.25       89.36       88.49       87.65       86.83       86.02       85.23       84.46       83.70    
        82.95       82.21       81.49       80.77       80.06       79.36       78.67       77.98       77.30       76.62    
        75.95       75.28       74.62       73.95       73.29       72.63       71.97       71.31       70.66       70.00    
  41  -1000.0       103.6       103.5       103.4       103.2       102.9       102.6       102.1       101.7       101.1    
        100.5       99.78       99.00       98.15       97.22       96.21       95.21       94.24       93.29       92.35    
        91.40       90.47       89.57       88.69       87.84       87.00       86.19       85.39       84.61       83.84    
        83.08       82.34       81.60       80.88       80.16       79.45       78.75       78.06       77.37       76.69    
        76.01       75.33       74.66       73.99       73.32       72.66       71.99       71.33       70.66       70.00    
  42  -1000.0     -1000.0       103.7       103.5       103.3       103.1       102.7       102.3       101.8       101.3    
        100.7       99.97       99.20       98.35       97.42       96.41       95.42       94.45       93.49       92.56    
        91.60       90.67       89.76       88.87       88.01       87.16       86.34       85.53       84.74       83.96    
        83.20       82.45       81.70       80.97       80.25       79.54       78.83       78.13       77.43       76.75    
        76.06       75.38       74.70       74.03       73.35       72.68       72.01       71.34       70.67       70.00    
  43  -1000.0     -1000.0     -1000.0       103.7       103.5       103.2       102.8       102.4       102.0       101.4    
        100.8       100.1       99.36       98.52       97.59       96.59       95.60       94.63       93.67       92.74    
        91.77       90.83       89.92       89.03       88.16       87.30       86.47       85.66       84.86       84.07    
        83.30       82.54       81.80       81.06       80.33       79.61       78.90       78.19       77.49       76.80    
        76.11       75.42       74.74       74.06       73.38       72.70       72.02       71.35       70.67       70.00    
  44  -1000.0     -1000.0     -1000.0     -1000.0       103.6       103.3       102.9       102.5       102.1       101.5    
        100.9       100.3       99.49       98.66       97.74       96.73       95.75       94.78       93.82       92.89    
        91.92       90.98       90.05       89.16       88.28       87.42       86.59       85.77       84.96       84.17    
        83.39       82.63       81.88       81.13       80.40       79.67       78.96       78.25       77.54       76.84    
        76.15       75.46       74.77       74.08       73.40       72.72       72.04       71.36       70.68       70.00    
  45  -1000.0     -1000.0     -1000.0     -1000.0     -1000.0       103.3       103.0       102.6       102.2       101.6    
        101.0       100.4       99.60       98.77       97.86       96.85       95.87       94.90       93.95       93.01    
        92.04       91.09       90.17       89.27       88.39       87.52       86.68       85.86       85.05       84.25    
        83.47       82.70       81.94       81.19       80.46       79.73       79.01       78.29       77.58       76.88    
        76.18       75.48       74.79       74.10       73.42       72.73       72.05       71.36       70.68       70.00    
  46  -1000.0     -1000.0     -1000.0     -1000.0     -1000.0     -1000.0       103.0       102.6       102.2       101.7    
        101.1       100.4       99.68       98.86       97.95       96.95       95.97       95.00       94.05       93.11    
        92.14       91.19       90.26       89.35       88.47       87.60       86.76       85.93       85.11       84.31    
        83.53       82.76       82.00       81.24       80.50       79.77       79.04       78.33       77.61       76.91    
        76.21       75.51       74.81       74.12       73.43       72.74       72.06       71.37       70.69       70.00    
  47  -1000.0     -1000.0     -1000.0     -1000.0     -1000.0     -1000.0     -1000.0       102.7       102.2       101.7    
        101.1       100.5       99.74       98.92       98.01       97.02       96.04       95.07       94.12       93.18    
        92.21       91.26       90.33       89.42       88.53       87.66       86.81       85.98       85.17       84.36    
        83.58       82.80       82.04       81.28       80.54       79.80       79.07       78.35       77.64       76.93    
        76.23       75.53       74.83       74.13       73.44       72.75       72.06       71.38       70.69       70.00    
  48  -1000.0     -1000.0     -1000.0     -1000.0     -1000.0     -1000.0     -1000.0     -1000.0       102.2       101.7    
        101.1       100.5       99.77       98.96       98.06       97.06       96.08       95.12       94.17       93.23    
        92.26       91.30       90.37       89.46       88.57       87.70       86.85       86.02       85.20       84.40    
        83.61       82.83       82.06       81.31       80.56       79.82       79.09       78.37       77.66       76.95    
        76.24       75.54       74.84       74.14       73.45       72.76       72.07       71.38       70.69       70.00    
  49  -1000.0     -1000.0     -1000.0     -1000.0     -1000.0     -1000.0     -1000.0     -1000.0     -1000.0       101.7    
        101.1       100.5       99.79       98.98       98.08       97.09       96.11       95.14       94.19       93.26    
        92.28       91.33       90.39       89.48       88.59       87.72       86.87       86.04       85.22       84.41    
        83.62       82.84       82.08       81.32       80.57       79.83       79.10       78.38       77.66       76.95    
        76.25       75.54       74.84       74.15       73.45       72.76       72.07       71.38       70.69       70.00    
  50  -1000.0     -1000.0     -1000.0     -1000.0     -1000.0     -1000.0     -1000.0     -1000.0     -1000.0     -1000.0    
      -1000.0     -1000.0     -1000.0     -1000.0     -1000.0     -1000.0     -1000.0     -1000.0     -1000.0     -1000.0    
      -1000.0     -1000.0     -1000.0     -1000.0     -1000.0     -1000.0     -1000.0     -1000.0     -1000.0     -1000.0    
      -1000.0     -1000.0     -1000.0     -1000.0     -1000.0     -1000.0     -1000.0     -1000.0     -1000.0     -1000.0    
      -1000.0     -1000.0     -1000.0     -1000.0     -1000.0     -1000.0     -1000.0     -1000.0     -1000.0       70.00    

 HEAD WILL BE SAVED ON UNIT   51 AT END OF TIME STEP    1, STRESS PERIOD    1

 DRAWDOWN WILL BE SAVED ON UNIT   52 AT END OF TIME STEP    1, STRESS PERIOD    1
1
  VOLUMETRIC BUDGET FOR ENTIRE MODEL AT END OF TIME STEP    1, STRESS PERIOD   1
  ------------------------------------------------------------------------------

     CUMULATIVE VOLUMES      L**3       RATES FOR THIS TIME STEP      L**3/T
     ------------------                 ------------------------

           IN:                                      IN:
           ---                                      ---
             STORAGE =           0.0000               STORAGE =           0.0000
       CONSTANT HEAD =           0.0000         CONSTANT HEAD =           0.0000
               WELLS =         375.0000                 WELLS =         375.0000
       RIVER LEAKAGE =        3584.2627         RIVER LEAKAGE =        3584.2627
                  ET =           0.0000                    ET =           0.0000
            RECHARGE =       33199.9961              RECHARGE =       33199.9961

            TOTAL IN =       37159.2578              TOTAL IN =       37159.2578

          OUT:                                     OUT:
          ----                                     ----
             STORAGE =           0.0000               STORAGE =           0.0000
       CONSTANT HEAD =       12726.9365         CONSTANT HEAD =       12726.9365
               WELLS =        3000.0000                 WELLS =        3000.0000
       RIVER LEAKAGE =       20221.6270         RIVER LEAKAGE =       20221.6270
                  ET =        1210.6747                    ET =        1210.6747
            RECHARGE =           0.0000              RECHARGE =           0.0000

           TOTAL OUT =       37159.2383             TOTAL OUT =       37159.2383

            IN - OUT =       1.9531E-02              IN - OUT =       1.9531E-02

 PERCENT DISCREPANCY =           0.00     PERCENT DISCREPANCY =           0.00






         TIME SUMMARY AT END OF TIME STEP    1 IN STRESS PERIOD    1
                    SECONDS     MINUTES      HOURS       DAYS        YEARS
                    -----------------------------------------------------------
   TIME STEP LENGTH  86400.      1440.0      24.000      1.0000     2.73785E-03
 STRESS PERIOD TIME  86400.      1440.0      24.000      1.0000     2.73785E-03
         TOTAL TIME  86400.      1440.0      24.000      1.0000     2.73785E-03
1

 Run end date and time (yyyy/mm/dd hh:mm:ss): 2026/02/25 16:25:00
 Elapsed run time: 13.419 Seconds

