                                  MODFLOW-2005     
      U.S. GEOLOGICAL SURVEY MODULAR FINITE-DIFFERENCE GROUND-WATER FLOW MODEL
                            VERSION 1.12.00 2/3/2017

 LIST FILE: static_ensemble_3222222.list
                         UNIT    2

 OPENING static_ensemble_3222222.dis
 FILE TYPE:DIS   UNIT   11   STATUS:OLD    
 FORMAT:FORMATTED              ACCESS:SEQUENTIAL          

 OPENING static_ensemble_3222222.bas
 FILE TYPE:BAS6   UNIT   13   STATUS:OLD    
 FORMAT:FORMATTED              ACCESS:SEQUENTIAL          

 OPENING static_ensemble_3222222.lpf
 FILE TYPE:LPF   UNIT   15   STATUS:OLD    
 FORMAT:FORMATTED              ACCESS:SEQUENTIAL          

 OPENING static_ensemble_3222222.evt
 FILE TYPE:EVT   UNIT   22   STATUS:OLD    
 FORMAT:FORMATTED              ACCESS:SEQUENTIAL          

 OPENING static_ensemble_3222222.rch
 FILE TYPE:RCH   UNIT   19   STATUS:OLD    
 FORMAT:FORMATTED              ACCESS:SEQUENTIAL          

 OPENING static_ensemble_3222222.riv
 FILE TYPE:RIV   UNIT   18   STATUS:OLD    
 FORMAT:FORMATTED              ACCESS:SEQUENTIAL          

 OPENING static_ensemble_3222222.wel
 FILE TYPE:WEL   UNIT   20   STATUS:OLD    
 FORMAT:FORMATTED              ACCESS:SEQUENTIAL          

 OPENING static_ensemble_3222222.oc
 FILE TYPE:OC   UNIT   14   STATUS:OLD    
 FORMAT:FORMATTED              ACCESS:SEQUENTIAL          

 OPENING static_ensemble_3222222.pcg
 FILE TYPE:PCG   UNIT   27   STATUS:OLD    
 FORMAT:FORMATTED              ACCESS:SEQUENTIAL          

 OPENING static_ensemble_3222222.cbc
 FILE TYPE:DATA(BINARY)   UNIT   53   STATUS:REPLACE
 FORMAT:UNFORMATTED            ACCESS:STREAM              

 OPENING static_ensemble_3222222.hds
 FILE TYPE:DATA(BINARY)   UNIT   51   STATUS:REPLACE
 FORMAT:UNFORMATTED            ACCESS:STREAM              

 OPENING static_ensemble_3222222.ddn
 FILE TYPE:DATA(BINARY)   UNIT   52   STATUS:REPLACE
 FORMAT:UNFORMATTED            ACCESS:STREAM              

 BAS -- BASIC PACKAGE, VERSION 7, 5/2/2005 INPUT READ FROM UNIT   13
 
 MODFLOW was compiled using mixed precision
 Precision of REAL variables:           6
 Precision of DOUBLE PRECISION variables:          15

 DISCRETIZATION INPUT DATA READ FROM UNIT   11
 # DIS package for MODFLOW-2005 generated by Flopy 3.9.5
    3 LAYERS        50 ROWS        50 COLUMNS
    1 STRESS PERIOD(S) IN SIMULATION
 MODEL TIME UNIT IS DAYS
 MODEL LENGTH UNIT IS METERS
  Confining bed flag for each layer:
   0   0   0

                     DELR =   1000.00    

                     DELC =   1000.00    



           TOP ELEVATION OF LAYER 1
 READING ON UNIT   11 WITH FORMAT: (50E15.6)           



             MODEL LAYER BOTTOM EL. FOR LAYER   1
 READING ON UNIT   11 WITH FORMAT: (50E15.6)           



             MODEL LAYER BOTTOM EL. FOR LAYER   2
 READING ON UNIT   11 WITH FORMAT: (50E15.6)           



             MODEL LAYER BOTTOM EL. FOR LAYER   3
 READING ON UNIT   11 WITH FORMAT: (50E15.6)           


 STRESS PERIOD     LENGTH       TIME STEPS     MULTIPLIER FOR DELT    SS FLAG
 ----------------------------------------------------------------------------
        1         1.000000          1                    1.000         SS

 STEADY-STATE SIMULATION



 
 # BAS6 package for MODFLOW-2005 generated by Flopy 3.9.5                        
 THE FREE FORMAT OPTION HAS BEEN SELECTED



                     BOUNDARY ARRAY FOR LAYER   1
 READING ON UNIT   13 WITH FORMAT: (50I10)             



                     BOUNDARY ARRAY FOR LAYER   2
 READING ON UNIT   13 WITH FORMAT: (50I10)             



                     BOUNDARY ARRAY FOR LAYER   3
 READING ON UNIT   13 WITH FORMAT: (50I10)             

 AQUIFER HEAD WILL BE SET TO  -999.99     AT ALL NO-FLOW NODES (IBOUND=0).



                       INITIAL HEAD FOR LAYER   1
 READING ON UNIT   13 WITH FORMAT: (50E15.6)           



                       INITIAL HEAD FOR LAYER   2
 READING ON UNIT   13 WITH FORMAT: (50E15.6)           



                       INITIAL HEAD FOR LAYER   3
 READING ON UNIT   13 WITH FORMAT: (50E15.6)           
 # OC package for MODFLOW-2005 generated by Flopy 3.9.5

 OUTPUT CONTROL IS SPECIFIED ONLY AT TIME STEPS FOR WHICH OUTPUT IS DESIRED
 COMPACT CELL-BY-CELL BUDGET FILES WILL BE WRITTEN
 AUXILIARY DATA WILL BE SAVED IN CELL-BY-CELL BUDGET FILES
 HEAD PRINT FORMAT CODE IS   0    DRAWDOWN PRINT FORMAT CODE IS   0
 HEADS WILL BE SAVED ON UNIT   51    DRAWDOWNS WILL BE SAVED ON UNIT   52

 LPF -- LAYER-PROPERTY FLOW PACKAGE, VERSION 7, 5/2/2005
         INPUT READ FROM UNIT   15
 # LPF package for MODFLOW-2005 generated by Flopy 3.9.5
 CELL-BY-CELL FLOWS WILL BE SAVED ON UNIT   53
 HEAD AT CELLS THAT CONVERT TO DRY= -1.00000E+30
 No named parameters
 STORAGECOEFFICIENT OPTION:
 Read storage coefficient rather than specific storage

   LAYER FLAGS:
 LAYER       LAYTYP        LAYAVG         CHANI        LAYVKA        LAYWET
 ---------------------------------------------------------------------------
    1             1             0     1.000E+00             0             0
    2             1             0     1.000E+00             0             0
    3             1             0     1.000E+00             0             0

   INTERPRETATION OF LAYER FLAGS:
                        INTERBLOCK     HORIZONTAL    DATA IN
         LAYER TYPE   TRANSMISSIVITY   ANISOTROPY   ARRAY VKA   WETTABILITY
 LAYER      (LAYTYP)      (LAYAVG)       (CHANI)      (LAYVKA)      (LAYWET)
 ---------------------------------------------------------------------------
    1   CONVERTIBLE      HARMONIC     1.000E+00    VERTICAL K  NON-WETTABLE
    2   CONVERTIBLE      HARMONIC     1.000E+00    VERTICAL K  NON-WETTABLE
    3   CONVERTIBLE      HARMONIC     1.000E+00    VERTICAL K  NON-WETTABLE

 WETTING CAPABILITY IS NOT ACTIVE IN ANY LAYER



              HYD. COND. ALONG ROWS FOR LAYER   1
 READING ON UNIT   15 WITH FORMAT: (50E15.6)           



                VERTICAL HYD. COND. FOR LAYER   1
 READING ON UNIT   15 WITH FORMAT: (50E15.6)           



              HYD. COND. ALONG ROWS FOR LAYER   2
 READING ON UNIT   15 WITH FORMAT: (50E15.6)           



                VERTICAL HYD. COND. FOR LAYER   2
 READING ON UNIT   15 WITH FORMAT: (50E15.6)           



              HYD. COND. ALONG ROWS FOR LAYER   3
 READING ON UNIT   15 WITH FORMAT: (50E15.6)           



                VERTICAL HYD. COND. FOR LAYER   3
 READING ON UNIT   15 WITH FORMAT: (50E15.6)           

 WEL -- WELL PACKAGE, VERSION 7, 5/2/2005 INPUT READ FROM UNIT   20
 # WEL package for MODFLOW-2005 generated by Flopy 3.9.5
 No named parameters
 MAXIMUM OF      3 ACTIVE WELLS AT ONE TIME


     0 Well parameters

 RIV -- RIVER PACKAGE, VERSION 7, 5/2/2005 INPUT READ FROM UNIT   18
 # RIV package for MODFLOW-2005 generated by Flopy 3.9.5
 No named parameters
 MAXIMUM OF     49 ACTIVE RIVER REACHES AT ONE TIME
 CELL-BY-CELL FLOWS WILL BE SAVED ON UNIT   53


     0 River parameters

 EVT -- EVAPOTRANSPIRATION PACKAGE, VERSION 7, 5/2/2005
         INPUT READ FROM UNIT   22
 # EVT package for MODFLOW-2005 generated by Flopy 3.9.5
 No named parameters
 OPTION 3 -- EVAPOTRANSPIRATION FROM HIGHEST ACTIVE NODE IN EACH VERTICAL COLUMN
 CELL-BY-CELL FLOWS WILL BE SAVED ON UNIT   53


     0 Evapotranspiration parameters

 RCH -- RECHARGE PACKAGE, VERSION 7, 5/2/2005 INPUT READ FROM UNIT   19
 # RCH package for MODFLOW-2005 generated by Flopy 3.9.5
 No named parameters
 OPTION 3 -- RECHARGE TO HIGHEST ACTIVE NODE IN EACH VERTICAL COLUMN
 CELL-BY-CELL FLOWS WILL BE SAVED ON UNIT   53


     0 Recharge parameters

 PCG -- CONJUGATE-GRADIENT SOLUTION PACKAGE, VERSION 7, 5/2/2005
 # PCG package for MODFLOW-2005 generated by Flopy 3.9.5
 MAXIMUM OF   5000 CALLS OF SOLUTION ROUTINE
 MAXIMUM OF    500 INTERNAL ITERATIONS PER CALL TO SOLUTION ROUTINE
 MATRIX PRECONDITIONING TYPE :    1



                                    SOLUTION BY THE CONJUGATE-GRADIENT METHOD
                                   -------------------------------------------
                    MAXIMUM NUMBER OF CALLS TO PCG ROUTINE =     5000
                        MAXIMUM ITERATIONS PER CALL TO PCG =      500
                               MATRIX PRECONDITIONING TYPE =        1
        RELAXATION FACTOR (ONLY USED WITH PRECOND. TYPE 1) =    0.97000E+00
 PARAMETER OF POLYNOMIAL PRECOND. = 2 (2) OR IS CALCULATED :        0
                         HEAD CHANGE CRITERION FOR CLOSURE =    0.10000E-04
                     RESIDUAL CHANGE CRITERION FOR CLOSURE =    0.10000E-04
            PCG HEAD AND RESIDUAL CHANGE PRINTOUT INTERVAL =      999
     PRINTING FROM SOLVER IS LIMITED(1) OR SUPPRESSED (>1) =        3
                            STEADY-STATE DAMPING PARAMETER =    0.10000E-01
                               TRANSIENT DAMPING PARAMETER =    0.10000E-01
1
                            STRESS PERIOD NO.    1, LENGTH =   1.000000    
                            -----------------------------------------------

                              NUMBER OF TIME STEPS =     1

                               MULTIPLIER FOR DELT =     1.000

                            INITIAL TIME STEP SIZE =   1.000000    

 WELL NO.  LAYER   ROW   COL   STRESS RATE         
 --------------------------------------------------
      1      3     22     39      -1500.    
      2      1     13     15      -4500.    
      3      1     25     26       375.0    

      3 WELLS

 REACH NO.  LAYER   ROW   COL     STAGE      CONDUCTANCE     BOTTOM EL.         
 -------------------------------------------------------------------------------
      1      1     25      2       100.5          0.1000E+05       98.00    
      2      1     25      3       99.50          0.1000E+05       97.00    
      3      1     25      4       98.50          0.1000E+05       96.00    
      4      1     25      5       97.50          0.1000E+05       95.00    
      5      1     25      6       96.50          0.1000E+05       94.00    
      6      1     25      7       95.50          0.1000E+05       93.00    
      7      1     25      8       94.50          0.1000E+05       92.00    
      8      1     25      9       93.50          0.1000E+05       91.00    
      9      1     25     10       92.50          0.1000E+05       90.00    
     10      1     25     11       91.50          0.1000E+05       89.00    
     11      1     25     12       90.50          0.1000E+05       88.00    
     12      1     25     13       89.50          0.1000E+05       87.00    
     13      1     25     14       88.50          0.1000E+05       86.00    
     14      1     25     15       87.50          0.1000E+05       85.00    
     15      1     25     16       86.50          0.1000E+05       84.00    
     16      1     25     17       85.50          0.1000E+05       83.00    
     17      1     25     18       84.50          0.1000E+05       82.00    
     18      1     25     19       83.50          0.1000E+05       81.00    
     19      1     25     20       82.50          0.1000E+05       80.00    
     20      1     25     21       81.50          0.1000E+05       79.00    
     21      1     25     22       80.50          0.1000E+05       78.00    
     22      1     25     23       79.50          0.1000E+05       77.00    
     23      1     25     24       78.50          0.1000E+05       76.00    
     24      1     25     25       77.50          0.1000E+05       75.00    
     25      1     25     26       77.40          0.1000E+05       74.90    
     26      1     25     27       77.30          0.1000E+05       74.80    
     27      1     25     28       77.20          0.1000E+05       74.70    
     28      1     25     29       77.10          0.1000E+05       74.60    
     29      1     25     30       77.00          0.1000E+05       74.50    
     30      1     25     31       76.90          0.1000E+05       74.40    
     31      1     25     32       76.80          0.1000E+05       74.30    
     32      1     25     33       76.70          0.1000E+05       74.20    
     33      1     25     34       76.60          0.1000E+05       74.10    
     34      1     25     35       76.50          0.1000E+05       74.00    
     35      1     25     36       76.40          0.1000E+05       73.90    
     36      1     25     37       76.30          0.1000E+05       73.80    
     37      1     25     38       76.20          0.1000E+05       73.70    
     38      1     25     39       76.10          0.1000E+05       73.60    
     39      1     25     40       76.00          0.1000E+05       73.50    
     40      1     25     41       75.90          0.1000E+05       73.40    
     41      1     25     42       75.80          0.1000E+05       73.30    
     42      1     25     43       75.70          0.1000E+05       73.20    
     43      1     25     44       75.60          0.1000E+05       73.10    
     44      1     25     45       75.50          0.1000E+05       73.00    
     45      1     25     46       75.40          0.1000E+05       72.90    
     46      1     25     47       75.30          0.1000E+05       72.80    
     47      1     25     48       75.20          0.1000E+05       72.70    
     48      1     25     49       75.10          0.1000E+05       72.60    
     49      1     25     50       75.00          0.1000E+05       72.50    

     49 RIVER REACHES



                         ET SURFACE
 READING ON UNIT   22 WITH FORMAT: (50E15.6)           



            EVAPOTRANSPIRATION RATE
 READING ON UNIT   22 WITH FORMAT: (50E15.6)           

         EXTINCTION DEPTH =   10.0000    



                           RECHARGE
 READING ON UNIT   19 WITH FORMAT: (50E15.6)           
 
 SOLVING FOR HEAD 

 OUTPUT CONTROL FOR STRESS PERIOD    1   TIME STEP    1
    SAVE HEAD FOR ALL LAYERS
    SAVE DRAWDOWN FOR ALL LAYERS
    SAVE BUDGET
    PRINT HEAD FOR ALL LAYERS
    PRINT BUDGET
 UBDSV2 SAVING "   CONSTANT HEAD" ON UNIT  53 AT TIME STEP  1, STRESS PERIOD   1
 UBDSV1 SAVING "FLOW RIGHT FACE " ON UNIT  53 AT TIME STEP  1, STRESS PERIOD   1
 UBDSV1 SAVING "FLOW FRONT FACE " ON UNIT  53 AT TIME STEP  1, STRESS PERIOD   1
 UBDSV1 SAVING "FLOW LOWER FACE " ON UNIT  53 AT TIME STEP  1, STRESS PERIOD   1
 UBDSV4 SAVING "   RIVER LEAKAGE" ON UNIT  53 AT TIME STEP  1, STRESS PERIOD   1
 UBDSV3 SAVING "              ET" ON UNIT  53 AT TIME STEP  1, STRESS PERIOD   1
 UBDSV3 SAVING "        RECHARGE" ON UNIT  53 AT TIME STEP  1, STRESS PERIOD   1
1
              HEAD IN LAYER   1 AT END OF TIME STEP   1 IN STRESS PERIOD    1
  ---------------------------------------------------------------------------

            1           2           3           4           5           6           7           8           9          10
           11          12          13          14          15          16          17          18          19          20
           21          22          23          24          25          26          27          28          29          30
           31          32          33          34          35          36          37          38          39          40
           41          42          43          44          45          46          47          48          49          50
 ........................................................................................................................
   1  -1000.0     -1000.0     -1000.0     -1000.0     -1000.0     -1000.0     -1000.0     -1000.0     -1000.0     -1000.0    
      -1000.0     -1000.0     -1000.0     -1000.0     -1000.0     -1000.0     -1000.0     -1000.0     -1000.0     -1000.0    
      -1000.0     -1000.0     -1000.0     -1000.0     -1000.0     -1000.0     -1000.0     -1000.0     -1000.0     -1000.0    
      -1000.0     -1000.0     -1000.0     -1000.0     -1000.0     -1000.0     -1000.0     -1000.0     -1000.0     -1000.0    
      -1000.0     -1000.0     -1000.0     -1000.0     -1000.0     -1000.0     -1000.0     -1000.0     -1000.0       70.00    
   2  -1000.0     -1000.0     -1000.0     -1000.0     -1000.0       86.07       85.97       85.81       85.62       85.39    
        85.21       84.99       84.74       84.46       84.17       83.85       83.53       83.19       82.84       82.48    
        82.11       81.74       81.36       80.98       80.59       80.20       79.81       79.41       79.02       78.62    
        78.21       77.81       77.40       76.99       76.58       76.17       75.75       75.33       74.91       74.48    
        74.05       73.62       73.18       72.74       72.29       71.84       71.39       70.93       70.47       70.00    
   3  -1000.0     -1000.0     -1000.0     -1000.0       86.30       86.17       86.02       85.85       85.64       85.45    
        85.25       85.02       84.76       84.48       84.18       83.87       83.54       83.19       82.84       82.48    
        82.12       81.75       81.37       80.98       80.60       80.21       79.81       79.42       79.02       78.62    
        78.21       77.81       77.40       76.99       76.58       76.17       75.75       75.33       74.91       74.48    
        74.05       73.62       73.18       72.74       72.29       71.84       71.39       70.93       70.47       70.00    
   4  -1000.0     -1000.0     -1000.0       86.56       86.42       86.27       86.11       85.91       85.73       85.53    
        85.31       85.06       84.80       84.51       84.21       83.89       83.56       83.21       82.86       82.50    
        82.13       81.75       81.37       80.99       80.60       80.21       79.81       79.42       79.02       78.62    
        78.21       77.81       77.40       76.99       76.58       76.17       75.75       75.33       74.91       74.49    
        74.06       73.62       73.18       72.74       72.29       71.84       71.39       70.93       70.47       70.00    
   5  -1000.0     -1000.0       86.82       86.69       86.55       86.39       86.21       86.03       85.83       85.61    
        85.38       85.13       84.85       84.56       84.25       83.92       83.58       83.24       82.88       82.51    
        82.14       81.76       81.38       80.99       80.60       80.21       79.81       79.42       79.02       78.62    
        78.21       77.81       77.40       76.99       76.58       76.17       75.76       75.34       74.92       74.49    
        74.06       73.63       73.19       72.75       72.30       71.85       71.39       70.93       70.47       70.00    
   6  -1000.0       87.05       86.95       86.83       86.68       86.52       86.34       86.15       85.94       85.72    
        85.47       85.21       84.92       84.62       84.30       83.97       83.62       83.27       82.91       82.54    
        82.16       81.78       81.39       81.00       80.61       80.21       79.82       79.42       79.02       78.61    
        78.21       77.81       77.40       76.99       76.58       76.17       75.76       75.34       74.92       74.50    
        74.07       73.63       73.19       72.75       72.30       71.85       71.39       70.93       70.47       70.00    
   7  -1000.0       87.14       87.08       86.97       86.83       86.67       86.49       86.29       86.07       85.83    
        85.58       85.30       85.00       84.69       84.36       84.02       83.67       83.31       82.94       82.56    
        82.18       81.80       81.41       81.01       80.62       80.22       79.82       79.42       79.02       78.61    
        78.21       77.81       77.40       76.99       76.59       76.18       75.76       75.35       74.93       74.50    
        74.07       73.64       73.20       72.76       72.31       71.86       71.40       70.94       70.47       70.00    
   8  -1000.0       87.30       87.24       87.14       87.00       86.84       86.65       86.44       86.22       85.97    
        85.70       85.41       85.10       84.77       84.43       84.08       83.72       83.35       82.98       82.60    
        82.21       81.82       81.42       81.02       80.62       80.22       79.82       79.42       79.01       78.61    
        78.21       77.80       77.40       76.99       76.59       76.18       75.77       75.35       74.93       74.51    
        74.08       73.65       73.21       72.77       72.32       71.87       71.41       70.94       70.47       70.00    
   9  -1000.0       87.48       87.44       87.32       87.18       87.02       86.83       86.61       86.38       86.11    
        85.83       85.53       85.20       84.86       84.51       84.15       83.78       83.40       83.02       82.63    
        82.24       81.84       81.44       81.03       80.63       80.22       79.82       79.41       79.01       78.61    
        78.20       77.80       77.40       76.99       76.59       76.18       75.77       75.36       74.94       74.52    
        74.10       73.67       73.23       72.78       72.33       71.88       71.42       70.95       70.48       70.00    
  10  -1000.0       87.71       87.63       87.52       87.39       87.22       87.03       86.80       86.56       86.28    
        85.98       85.66       85.32       84.96       84.59       84.22       83.84       83.46       83.07       82.67    
        82.27       81.86       81.45       81.04       80.63       80.22       79.81       79.41       79.00       78.60    
        78.20       77.79       77.39       76.99       76.59       76.19       75.78       75.37       74.96       74.54    
        74.11       73.68       73.25       72.80       72.35       71.89       71.43       70.96       70.48       70.00    
  11  -1000.0       87.91       87.85       87.75       87.62       87.45       87.25       87.02       86.75       86.47    
        86.15       85.81       85.45       85.07       84.68       84.30       83.91       83.52       83.12       82.71    
        82.30       81.88       81.47       81.05       80.63       80.22       79.81       79.40       78.99       78.59    
        78.19       77.79       77.39       76.99       76.59       76.19       75.79       75.38       74.97       74.55    
        74.13       73.70       73.27       72.82       72.37       71.91       71.44       70.97       70.49       70.00    
  12  -1000.0       88.15       88.10       88.01       87.87       87.70       87.49       87.25       86.98       86.67    
        86.34       85.98       85.59       85.18       84.75       84.37       83.99       83.59       83.17       82.76    
        82.33       81.90       81.48       81.05       80.63       80.21       79.79       79.38       78.98       78.57    
        78.17       77.77       77.38       76.98       76.59       76.19       75.80       75.39       74.99       74.58    
        74.16       73.73       73.29       72.85       72.40       71.93       71.46       70.98       70.49       70.00    
  13  -1000.0       88.45       88.40       88.31       88.17       87.99       87.77       87.51       87.23       86.90    
        86.55       86.17       85.76       85.30       84.75       84.45       84.07       83.66       83.24       82.80    
        82.36       81.93       81.49       81.05       80.62       80.20       79.78       79.36       78.95       78.55    
        78.15       77.76       77.37       76.98       76.59       76.20       75.81       75.41       75.01       74.60    
        74.19       73.76       73.33       72.88       72.43       71.96       71.48       71.00       70.50       70.00    
  14  -1000.0       88.79       88.74       88.64       88.49       88.30       88.07       87.80       87.50       87.16    
        86.79       86.39       85.96       85.51       85.03       84.62       84.19       83.75       83.30       82.85    
        82.40       81.94       81.49       81.04       80.61       80.17       79.75       79.33       78.92       78.52    
        78.13       77.74       77.35       76.97       76.59       76.20       75.82       75.43       75.03       74.63    
        74.22       73.80       73.37       72.92       72.47       72.00       71.51       71.02       70.51       70.00    
  15  -1000.0       89.17       89.12       89.02       88.86       88.66       88.41       88.13       87.80       87.44    
        87.05       86.63       86.19       85.72       85.25       84.78       84.32       83.85       83.38       82.90    
        82.43       81.95       81.49       81.03       80.58       80.14       79.71       79.29       78.89       78.49    
        78.10       77.71       77.34       76.96       76.58       76.21       75.83       75.45       75.06       74.67    
        74.27       73.85       73.42       72.98       72.52       72.04       71.55       71.04       70.53       70.00    
  16  -1000.0       89.61       89.55       89.44       89.27       89.05       88.79       88.48       88.13       87.75    
        87.33       86.89       86.43       85.94       85.45       84.95       84.45       83.95       83.45       82.95    
        82.45       81.96       81.47       81.00       80.54       80.09       79.66       79.24       78.84       78.44    
        78.06       77.68       77.31       76.94       76.58       76.22       75.85       75.48       75.10       74.71    
        74.32       73.91       73.48       73.04       72.58       72.10       71.60       71.08       70.54       70.00    
  17  -1000.0       90.09       90.03       89.90       89.72       89.49       89.20       88.87       88.49       88.08    
        87.64       87.17       86.68       86.16       85.64       85.11       84.58       84.04       83.51       82.98    
        82.46       81.95       81.45       80.96       80.49       80.03       79.60       79.18       78.78       78.39    
        78.01       77.64       77.28       76.93       76.57       76.22       75.87       75.51       75.14       74.77    
        74.38       73.98       73.56       73.12       72.66       72.17       71.66       71.12       70.57       70.00    
  18  -1000.0       90.63       90.56       90.42       90.22       89.96       89.65       89.29       88.88       88.44    
        87.96       87.46       86.94       86.39       85.84       85.27       84.70       84.14       83.57       83.01    
        82.46       81.92       81.40       80.90       80.41       79.95       79.51       79.10       78.70       78.32    
        77.95       77.59       77.25       76.91       76.57       76.23       75.89       75.54       75.19       74.83    
        74.46       74.07       73.66       73.22       72.76       72.27       71.74       71.18       70.60       70.00    
  19  -1000.0       91.23       91.15       91.00       90.78       90.49       90.14       89.75       89.30       88.82    
        88.31       87.77       87.21       86.62       86.03       85.43       84.82       84.22       83.62       83.03    
        82.45       81.88       81.33       80.81       80.31       79.85       79.41       78.99       78.60       78.23    
        77.88       77.54       77.21       76.88       76.56       76.24       75.91       75.58       75.25       74.91    
        74.55       74.18       73.78       73.35       72.89       72.39       71.85       71.26       70.64       70.00    
  20  -1000.0       91.90       91.81       91.64       91.39       91.07       90.68       90.24       89.76       89.23    
        88.67       88.09       87.48       86.86       86.23       85.59       84.94       84.30       83.66       83.03    
        82.41       81.81       81.24       80.70       80.18       79.71       79.27       78.86       78.49       78.13    
        77.79       77.47       77.16       76.85       76.55       76.25       75.94       75.63       75.31       74.99    
        74.66       74.31       73.93       73.51       73.05       72.55       71.99       71.37       70.70       70.00    
  21  -1000.0       92.65       92.55       92.35       92.06       91.70       91.26       90.77       90.24       89.66    
        89.06       88.42       87.77       87.10       86.42       85.74       85.05       84.37       83.69       83.02    
        82.36       81.72       81.11       80.54       80.02       79.54       79.10       78.71       78.34       78.01    
        77.69       77.39       77.10       76.82       76.54       76.26       75.97       75.68       75.38       75.09    
        74.79       74.46       74.10       73.71       73.26       72.76       72.18       71.53       70.79       70.00    
  22  -1000.0       93.49       93.37       93.14       92.81       92.39       91.89       91.34       90.75       90.12    
        89.46       88.77       88.07       87.35       86.62       85.88       85.15       84.42       83.70       82.98    
        82.27       81.59       80.94       80.34       79.80       79.31       78.89       78.51       78.18       77.86    
        77.58       77.30       77.04       76.78       76.53       76.27       76.01       75.74       75.43       75.21    
        74.94       74.65       74.32       73.95       73.53       73.04       72.46       71.76       70.93       70.00    
  23  -1000.0       94.43       94.29       94.02       93.63       93.14       92.57       91.95       91.29       90.59    
        89.87       89.13       88.37       87.59       86.81       86.02       85.24       84.45       83.67       82.90    
        82.15       81.42       80.72       80.08       79.51       79.03       78.63       78.28       77.98       77.70    
        77.44       77.20       76.97       76.74       76.52       76.30       76.07       75.83       75.59       75.37    
        75.13       74.86       74.57       74.24       73.86       73.40       72.84       72.11       71.17       70.00    
  24  -1000.0       95.50       95.34       95.01       94.53       93.95       93.29       92.59       91.85       91.08    
        90.29       89.49       88.67       87.84       87.00       86.16       85.32       84.48       83.64       82.81    
        82.00       81.20       80.44       79.74       79.13       78.68       78.31       78.01       77.75       77.52    
        77.30       77.10       76.90       76.70       76.51       76.32       76.13       75.94       75.74       75.54    
        75.33       75.11       74.87       74.59       74.27       73.88       73.37       72.66       71.61       70.00    
  25  -1000.0       96.71       96.54       96.14       95.53       94.82       94.05       93.25       92.43       91.58    
        90.72       89.85       88.97       88.08       87.19       86.29       85.39       84.49       83.59       82.70    
        81.81       80.94       80.09       79.28       78.58       78.21       77.93       77.70       77.50       77.31    
        77.14       76.98       76.82       76.66       76.51       76.36       76.20       76.05       75.89       75.73    
        75.56       75.39       75.20       74.99       74.76       74.47       74.11       73.58       72.61       70.00    
  26  -1000.0       95.50       95.34       95.01       94.53       93.95       93.30       92.59       91.85       91.09    
        90.30       89.49       88.68       87.85       87.01       86.17       85.32       84.48       83.65       82.82    
        82.00       81.21       80.45       79.74       79.14       78.68       78.32       78.02       77.76       77.52    
        77.30       77.10       76.90       76.71       76.52       76.33       76.14       75.95       75.76       75.56    
        75.34       75.12       74.87       74.59       74.27       73.88       73.37       72.66       71.61       70.00    
  27  -1000.0       94.43       94.29       94.02       93.63       93.14       92.58       91.96       91.30       90.60    
        89.88       89.14       88.38       87.61       86.83       86.04       85.25       84.46       83.68       82.91    
        82.16       81.43       80.74       80.09       79.52       79.04       78.64       78.29       77.99       77.71    
        77.45       77.21       76.98       76.75       76.53       76.31       76.09       75.87       75.64       75.40    
        75.15       74.88       74.58       74.25       73.87       73.41       72.84       72.11       71.17       70.00    
  28  -1000.0       93.49       93.37       93.14       92.81       92.39       91.90       91.36       90.76       90.13    
        89.47       88.79       88.09       87.37       86.64       85.90       85.17       84.43       83.70       82.98    
        82.28       81.61       80.96       80.36       79.81       79.33       78.90       78.53       78.19       77.87    
        77.59       77.31       77.05       76.79       76.54       76.30       76.05       75.79       75.53       75.26    
        74.97       74.67       74.33       73.96       73.53       73.04       72.46       71.76       70.93       70.00    
  29  -1000.0       92.65       92.55       92.36       92.07       91.71       91.28       90.79       90.26       89.68    
        89.08       88.45       87.80       87.14       86.46       85.77       85.08       84.39       83.71       83.03    
        82.38       81.74       81.14       80.57       80.04       79.55       79.12       78.72       78.36       78.02    
        77.70       77.40       77.11       76.83       76.56       76.28       76.01       75.72       75.44       75.14    
        74.82       74.48       74.12       73.72       73.27       72.76       72.19       71.53       70.79       70.00    
  30  -1000.0       91.90       91.82       91.65       91.40       91.08       90.70       90.26       89.78       89.26    
        88.71       88.13       87.52       86.90       86.27       85.63       84.98       84.33       83.69       83.06    
        82.44       81.84       81.27       80.72       80.21       79.73       79.29       78.88       78.50       78.14    
        77.81       77.48       77.17       76.87       76.57       76.27       75.97       75.66       75.35       75.03    
        74.69       74.33       73.94       73.52       73.06       72.55       71.99       71.37       70.70       70.00    
  31  -1000.0       91.23       91.16       91.01       90.79       90.50       90.16       89.77       89.33       88.86    
        88.35       87.81       87.26       86.68       86.09       85.48       84.88       84.27       83.67       83.07    
        82.48       81.92       81.37       80.84       80.34       79.87       79.43       79.01       78.62       78.25    
        77.89       77.55       77.22       76.90       76.58       76.26       75.94       75.61       75.28       74.93    
        74.57       74.20       73.79       73.36       72.90       72.39       71.85       71.26       70.64       70.00    
  32  -1000.0       90.63       90.57       90.43       90.24       89.98       89.67       89.32       88.92       88.48    
        88.01       87.52       87.00       86.46       85.91       85.34       84.77       84.20       83.63       83.06    
        82.51       81.97       81.44       80.93       80.44       79.98       79.54       79.12       78.72       78.34    
        77.97       77.61       77.26       76.92       76.59       76.25       75.91       75.57       75.22       74.85    
        74.48       74.09       73.67       73.23       72.77       72.27       71.74       71.18       70.60       70.00    
  33  -1000.0       90.09       90.03       89.91       89.73       89.50       89.22       88.90       88.53       88.13    
        87.70       87.24       86.75       86.25       85.73       85.20       84.66       84.12       83.58       83.04    
        82.51       81.99       81.49       81.00       80.52       80.06       79.62       79.20       78.80       78.41    
        78.03       77.66       77.30       76.95       76.59       76.24       75.89       75.53       75.16       74.79    
        74.40       74.00       73.57       73.13       72.67       72.18       71.66       71.12       70.57       70.00    
  34  -1000.0       89.61       89.55       89.44       89.28       89.07       88.81       88.51       88.17       87.80    
        87.40       86.97       86.52       86.05       85.56       85.06       84.55       84.04       83.52       83.01    
        82.51       82.01       81.52       81.04       80.58       80.13       79.69       79.27       78.86       78.46    
        78.08       77.70       77.33       76.96       76.60       76.23       75.87       75.50       75.12       74.73    
        74.33       73.92       73.50       73.05       72.59       72.10       71.60       71.08       70.54       70.00    
  35  -1000.0       89.17       89.12       89.02       88.87       88.67       88.44       88.16       87.85       87.50    
        87.12       86.72       86.30       85.86       85.40       84.92       84.44       83.95       83.46       82.98    
        82.49       82.01       81.54       81.07       80.62       80.17       79.74       79.32       78.91       78.51    
        78.12       77.73       77.35       76.98       76.60       76.23       75.85       75.47       75.08       74.68    
        74.28       73.86       73.43       72.99       72.52       72.05       71.55       71.05       70.53       70.00    
  36  -1000.0       88.78       88.73       88.63       88.50       88.31       88.09       87.84       87.54       87.22    
        86.87       86.49       86.09       85.67       85.24       84.79       84.33       83.87       83.40       82.93    
        82.46       82.00       81.54       81.09       80.64       80.21       79.78       79.36       78.95       78.55    
        78.15       77.76       77.37       76.99       76.60       76.22       75.83       75.44       75.05       74.65    
        74.23       73.81       73.38       72.93       72.47       72.00       71.52       71.02       70.51       70.00    
  37  -1000.0       88.43       88.38       88.29       88.16       87.99       87.78       87.54       87.27       86.96    
        86.63       86.28       85.90       85.50       85.09       84.66       84.23       83.78       83.33       82.88    
        82.43       81.98       81.54       81.10       80.66       80.23       79.81       79.39       78.98       78.57    
        78.17       77.78       77.39       77.00       76.61       76.22       75.82       75.42       75.02       74.61    
        74.20       73.77       73.34       72.89       72.43       71.97       71.49       71.00       70.50       70.00    
  38  -1000.0       88.12       88.08       87.99       87.86       87.70       87.50       87.27       87.02       86.73    
        86.42       86.08       85.72       85.34       84.95       84.54       84.12       83.70       83.27       82.83    
        82.40       81.96       81.53       81.10       80.67       80.24       79.82       79.41       79.00       78.59    
        78.19       77.79       77.40       77.00       76.61       76.21       75.81       75.41       75.00       74.59    
        74.17       73.74       73.30       72.86       72.40       71.94       71.46       70.98       70.49       70.00    
  39  -1000.0       87.85       87.81       87.72       87.60       87.44       87.25       87.03       86.79       86.51    
        86.22       85.90       85.56       85.20       84.82       84.43       84.03       83.62       83.20       82.78    
        82.36       81.94       81.51       81.09       80.67       80.25       79.84       79.42       79.02       78.61    
        78.21       77.81       77.41       77.01       76.61       76.20       75.80       75.39       74.98       74.57    
        74.14       73.71       73.28       72.83       72.38       71.91       71.44       70.97       70.49       70.00    
  40  -1000.0       87.62       87.57       87.48       87.36       87.21       87.02       86.81       86.58       86.32    
        86.03       85.73       85.40       85.06       84.70       84.32       83.94       83.54       83.14       82.73    
        82.32       81.91       81.50       81.08       80.67       80.25       79.84       79.43       79.03       78.62    
        78.22       77.81       77.41       77.01       76.61       76.20       75.79       75.38       74.97       74.55    
        74.12       73.69       73.25       72.81       72.36       71.90       71.43       70.96       70.48       70.00    
  41  -1000.0       87.44       87.37       87.28       87.15       87.00       86.82       86.62       86.39       86.14    
        85.87       85.58       85.27       84.94       84.59       84.23       83.85       83.47       83.08       82.69    
        82.29       81.88       81.48       81.07       80.66       80.25       79.84       79.44       79.03       78.63    
        78.22       77.82       77.41       77.01       76.60       76.20       75.79       75.37       74.95       74.53    
        74.11       73.67       73.23       72.79       72.34       71.88       71.42       70.95       70.48       70.00    
  42  -1000.0       87.24       87.20       87.09       86.96       86.81       86.64       86.44       86.22       85.98    
        85.72       85.44       85.14       84.82       84.49       84.14       83.78       83.41       83.03       82.64    
        82.25       81.85       81.46       81.05       80.65       80.25       79.84       79.44       79.03       78.63    
        78.23       77.82       77.42       77.01       76.60       76.19       75.78       75.36       74.94       74.52    
        74.09       73.66       73.22       72.78       72.33       71.87       71.41       70.94       70.47       70.00    
  43  -1000.0       87.07       87.02       86.93       86.79       86.64       86.47       86.28       86.07       85.84    
        85.59       85.32       85.03       84.72       84.40       84.06       83.71       83.35       82.98       82.60    
        82.22       81.83       81.44       81.04       80.64       80.24       79.84       79.44       79.04       78.63    
        78.23       77.82       77.42       77.01       76.60       76.19       75.77       75.36       74.94       74.51    
        74.08       73.65       73.21       72.76       72.32       71.86       71.40       70.94       70.47       70.00    
  44  -1000.0       86.93       86.87       86.77       86.64       86.49       86.32       86.14       85.93       85.71    
        85.47       85.21       84.93       84.64       84.32       83.99       83.65       83.30       82.93       82.56    
        82.19       81.80       81.42       81.03       80.63       80.24       79.84       79.44       79.04       78.63    
        78.23       77.82       77.42       77.01       76.60       76.18       75.77       75.35       74.93       74.50    
        74.07       73.64       73.20       72.76       72.31       71.85       71.40       70.94       70.47       70.00    
  45  -1000.0       86.84       86.74       86.63       86.50       86.35       86.18       86.00       85.81       85.60    
        85.37       85.12       84.85       84.56       84.25       83.93       83.60       83.25       82.90       82.53    
        82.16       81.78       81.40       81.01       80.62       80.23       79.83       79.43       79.03       78.63    
        78.23       77.82       77.42       77.01       76.60       76.18       75.77       75.35       74.92       74.50    
        74.07       73.63       73.19       72.75       72.30       71.85       71.39       70.93       70.47       70.00    
  46  -1000.0     -1000.0       86.63       86.51       86.37       86.22       86.06       85.89       85.70       85.50    
        85.28       85.04       84.78       84.50       84.20       83.88       83.55       83.21       82.86       82.51    
        82.14       81.77       81.39       81.00       80.62       80.22       79.83       79.43       79.03       78.63    
        78.23       77.82       77.42       77.01       76.59       76.18       75.76       75.34       74.92       74.49    
        74.06       73.63       73.19       72.74       72.30       71.84       71.39       70.93       70.47       70.00    
  47  -1000.0     -1000.0     -1000.0       86.38       86.26       86.12       85.96       85.78       85.61       85.42    
        85.21       84.98       84.72       84.45       84.16       83.85       83.52       83.19       82.84       82.49    
        82.12       81.75       81.38       80.99       80.61       80.22       79.83       79.43       79.03       78.63    
        78.23       77.82       77.41       77.01       76.59       76.18       75.76       75.34       74.92       74.49    
        74.06       73.62       73.18       72.74       72.29       71.84       71.39       70.93       70.47       70.00    
  48  -1000.0     -1000.0     -1000.0     -1000.0       86.14       86.02       85.88       85.72       85.52       85.35    
        85.15       84.93       84.68       84.42       84.13       83.82       83.50       83.17       82.82       82.47    
        82.11       81.74       81.37       80.99       80.60       80.22       79.82       79.43       79.03       78.63    
        78.23       77.82       77.41       77.00       76.59       76.18       75.76       75.34       74.91       74.49    
        74.05       73.62       73.18       72.74       72.29       71.84       71.39       70.93       70.47       70.00    
  49  -1000.0     -1000.0     -1000.0     -1000.0     -1000.0       85.93       85.83       85.68       85.50       85.29    
        85.12       84.90       84.66       84.40       84.11       83.81       83.49       83.16       82.82       82.47    
        82.11       81.74       81.36       80.99       80.60       80.21       79.82       79.43       79.03       78.63    
        78.23       77.82       77.41       77.00       76.59       76.18       75.76       75.34       74.91       74.48    
        74.05       73.62       73.18       72.74       72.29       71.84       71.38       70.93       70.46       70.00    
  50  -1000.0     -1000.0     -1000.0     -1000.0     -1000.0     -1000.0     -1000.0     -1000.0     -1000.0     -1000.0    
      -1000.0     -1000.0     -1000.0     -1000.0     -1000.0     -1000.0     -1000.0     -1000.0     -1000.0     -1000.0    
      -1000.0     -1000.0     -1000.0     -1000.0     -1000.0     -1000.0     -1000.0     -1000.0     -1000.0     -1000.0    
      -1000.0     -1000.0     -1000.0     -1000.0     -1000.0     -1000.0     -1000.0     -1000.0     -1000.0     -1000.0    
      -1000.0     -1000.0     -1000.0     -1000.0     -1000.0     -1000.0     -1000.0     -1000.0     -1000.0       70.00    
1
              HEAD IN LAYER   2 AT END OF TIME STEP   1 IN STRESS PERIOD    1
  ---------------------------------------------------------------------------

            1           2           3           4           5           6           7           8           9          10
           11          12          13          14          15          16          17          18          19          20
           21          22          23          24          25          26          27          28          29          30
           31          32          33          34          35          36          37          38          39          40
           41          42          43          44          45          46          47          48          49          50
 ........................................................................................................................
   1  -1000.0     -1000.0     -1000.0     -1000.0     -1000.0     -1000.0     -1000.0     -1000.0     -1000.0     -1000.0    
      -1000.0     -1000.0     -1000.0     -1000.0     -1000.0     -1000.0     -1000.0     -1000.0     -1000.0     -1000.0    
      -1000.0     -1000.0     -1000.0     -1000.0     -1000.0     -1000.0     -1000.0     -1000.0     -1000.0     -1000.0    
      -1000.0     -1000.0     -1000.0     -1000.0     -1000.0     -1000.0     -1000.0     -1000.0     -1000.0     -1000.0    
      -1000.0     -1000.0     -1000.0     -1000.0     -1000.0     -1000.0     -1000.0     -1000.0     -1000.0       70.00    
   2  -1000.0     -1000.0     -1000.0     -1000.0     -1000.0     -1000.0     -1000.0       85.81       85.62       85.39    
        85.21       84.99       84.74       84.46       84.17       83.85       83.53       83.19       82.84       82.48    
        82.11       81.74       81.36       80.98       80.59       80.20       79.81       79.41       79.02       78.62    
        78.21       77.81       77.40       76.99       76.58       76.17       75.75       75.33       74.91       74.48    
        74.05       73.62       73.18       72.74       72.29       71.84       71.39       70.93       70.47       70.00    
   3  -1000.0     -1000.0     -1000.0     -1000.0     -1000.0     -1000.0       86.02       85.85       85.64       85.45    
        85.25       85.02       84.76       84.48       84.18       83.87       83.54       83.19       82.84       82.48    
        82.12       81.75       81.37       80.98       80.60       80.21       79.81       79.42       79.02       78.62    
        78.21       77.81       77.40       76.99       76.58       76.17       75.75       75.33       74.91       74.48    
        74.05       73.62       73.18       72.74       72.29       71.84       71.39       70.93       70.47       70.00    
   4  -1000.0     -1000.0     -1000.0     -1000.0     -1000.0       86.27       86.11       85.91       85.73       85.53    
        85.31       85.06       84.80       84.51       84.21       83.89       83.56       83.21       82.86       82.50    
        82.13       81.75       81.37       80.99       80.60       80.21       79.81       79.42       79.02       78.62    
        78.21       77.81       77.40       76.99       76.58       76.17       75.75       75.33       74.91       74.49    
        74.06       73.62       73.18       72.74       72.29       71.84       71.39       70.93       70.47       70.00    
   5  -1000.0     -1000.0     -1000.0     -1000.0       86.55       86.39       86.21       86.03       85.83       85.61    
        85.38       85.13       84.85       84.56       84.25       83.92       83.58       83.24       82.88       82.51    
        82.14       81.76       81.38       80.99       80.60       80.21       79.81       79.42       79.02       78.62    
        78.21       77.81       77.40       76.99       76.58       76.17       75.76       75.34       74.92       74.49    
        74.06       73.63       73.19       72.75       72.30       71.85       71.39       70.93       70.47       70.00    
   6  -1000.0     -1000.0     -1000.0       86.83       86.68       86.52       86.34       86.15       85.94       85.72    
        85.47       85.21       84.92       84.62       84.30       83.97       83.62       83.27       82.91       82.54    
        82.16       81.78       81.39       81.00       80.61       80.21       79.82       79.42       79.02       78.61    
        78.21       77.81       77.40       76.99       76.58       76.17       75.76       75.34       74.92       74.50    
        74.07       73.63       73.19       72.75       72.30       71.85       71.39       70.93       70.47       70.00    
   7  -1000.0     -1000.0       87.08       86.97       86.83       86.67       86.49       86.29       86.07       85.83    
        85.58       85.30       85.00       84.69       84.36       84.02       83.67       83.31       82.94       82.56    
        82.18       81.80       81.41       81.01       80.62       80.22       79.82       79.42       79.02       78.61    
        78.21       77.81       77.40       76.99       76.59       76.18       75.76       75.35       74.93       74.50    
        74.07       73.64       73.20       72.76       72.31       71.86       71.40       70.94       70.47       70.00    
   8  -1000.0       87.30       87.24       87.14       87.00       86.84       86.65       86.44       86.22       85.97    
        85.70       85.41       85.10       84.77       84.43       84.08       83.72       83.35       82.98       82.60    
        82.21       81.82       81.42       81.02       80.62       80.22       79.82       79.42       79.01       78.61    
        78.21       77.80       77.40       76.99       76.59       76.18       75.77       75.35       74.93       74.51    
        74.08       73.65       73.21       72.77       72.32       71.87       71.41       70.94       70.47       70.00    
   9  -1000.0       87.48       87.44       87.32       87.18       87.02       86.83       86.61       86.38       86.11    
        85.83       85.53       85.20       84.86       84.51       84.15       83.78       83.40       83.02       82.63    
        82.24       81.84       81.44       81.03       80.63       80.22       79.82       79.41       79.01       78.61    
        78.20       77.80       77.40       76.99       76.59       76.18       75.77       75.36       74.94       74.52    
        74.10       73.67       73.23       72.78       72.33       71.88       71.42       70.95       70.48       70.00    
  10  -1000.0       87.71       87.63       87.52       87.39       87.22       87.03       86.80       86.56       86.28    
        85.98       85.66       85.32       84.96       84.59       84.22       83.84       83.46       83.07       82.67    
        82.27       81.86       81.45       81.04       80.63       80.22       79.81       79.41       79.00       78.60    
        78.20       77.79       77.39       76.99       76.59       76.19       75.78       75.37       74.96       74.54    
        74.11       73.68       73.25       72.80       72.35       71.89       71.43       70.96       70.48       70.00    
  11  -1000.0       87.91       87.85       87.75       87.62       87.45       87.25       87.02       86.75       86.47    
        86.15       85.81       85.45       85.07       84.68       84.30       83.91       83.52       83.12       82.71    
        82.30       81.88       81.47       81.05       80.63       80.22       79.81       79.40       78.99       78.59    
        78.19       77.79       77.39       76.99       76.59       76.19       75.79       75.38       74.97       74.55    
        74.13       73.70       73.27       72.82       72.37       71.91       71.44       70.97       70.49       70.00    
  12  -1000.0       88.15       88.10       88.01       87.87       87.70       87.49       87.25       86.98       86.67    
        86.34       85.98       85.59       85.18       84.75       84.37       83.99       83.59       83.17       82.76    
        82.33       81.90       81.48       81.05       80.63       80.21       79.79       79.38       78.98       78.57    
        78.17       77.77       77.38       76.98       76.59       76.19       75.80       75.39       74.99       74.58    
        74.16       73.73       73.29       72.85       72.40       71.93       71.46       70.98       70.49       70.00    
  13  -1000.0       88.45       88.40       88.31       88.17       87.99       87.77       87.51       87.23       86.90    
        86.55       86.17       85.76       85.30       84.75       84.45       84.07       83.66       83.24       82.80    
        82.36       81.93       81.49       81.05       80.62       80.20       79.78       79.36       78.95       78.55    
        78.15       77.76       77.37       76.98       76.59       76.20       75.81       75.41       75.01       74.60    
        74.19       73.76       73.33       72.88       72.43       71.96       71.48       71.00       70.50       70.00    
  14  -1000.0       88.79       88.74       88.64       88.49       88.30       88.07       87.80       87.50       87.16    
        86.79       86.39       85.96       85.51       85.03       84.62       84.19       83.75       83.30       82.85    
        82.40       81.94       81.49       81.04       80.61       80.17       79.75       79.33       78.92       78.52    
        78.13       77.74       77.35       76.97       76.59       76.20       75.82       75.43       75.03       74.63    
        74.22       73.80       73.37       72.92       72.47       72.00       71.51       71.02       70.51       70.00    
  15  -1000.0       89.17       89.12       89.02       88.86       88.66       88.41       88.13       87.80       87.44    
        87.05       86.63       86.19       85.72       85.25       84.78       84.32       83.85       83.38       82.90    
        82.43       81.95       81.49       81.03       80.58       80.14       79.71       79.29       78.89       78.49    
        78.10       77.71       77.34       76.96       76.58       76.21       75.83       75.45       75.06       74.67    
        74.27       73.85       73.42       72.98       72.52       72.04       71.55       71.04       70.53       70.00    
  16  -1000.0       89.61       89.55       89.44       89.27       89.05       88.79       88.48       88.13       87.75    
        87.33       86.89       86.43       85.94       85.45       84.95       84.45       83.95       83.45       82.95    
        82.45       81.96       81.47       81.00       80.54       80.09       79.66       79.24       78.84       78.44    
        78.06       77.68       77.31       76.94       76.58       76.22       75.85       75.48       75.10       74.71    
        74.32       73.91       73.48       73.04       72.58       72.10       71.60       71.08       70.54       70.00    
  17  -1000.0       90.09       90.03       89.90       89.72       89.49       89.20       88.87       88.49       88.08    
        87.64       87.17       86.67       86.16       85.64       85.11       84.58       84.04       83.51       82.98    
        82.46       81.95       81.45       80.96       80.49       80.03       79.60       79.18       78.78       78.39    
        78.01       77.64       77.28       76.93       76.57       76.22       75.87       75.51       75.14       74.77    
        74.38       73.98       73.56       73.12       72.66       72.17       71.66       71.12       70.57       70.00    
  18  -1000.0       90.63       90.56       90.42       90.22       89.96       89.65       89.29       88.88       88.44    
        87.96       87.46       86.94       86.39       85.84       85.27       84.70       84.14       83.57       83.01    
        82.46       81.92       81.40       80.90       80.41       79.95       79.51       79.10       78.70       78.32    
        77.95       77.59       77.25       76.91       76.57       76.23       75.89       75.54       75.19       74.83    
        74.46       74.07       73.66       73.22       72.76       72.27       71.74       71.18       70.60       70.00    
  19  -1000.0       91.23       91.15       91.00       90.78       90.49       90.14       89.75       89.30       88.82    
        88.31       87.77       87.21       86.62       86.03       85.43       84.82       84.22       83.62       83.03    
        82.45       81.88       81.33       80.81       80.31       79.85       79.41       78.99       78.60       78.23    
        77.88       77.54       77.21       76.88       76.56       76.24       75.91       75.58       75.25       74.91    
        74.55       74.18       73.78       73.35       72.89       72.39       71.85       71.26       70.64       70.00    
  20  -1000.0       91.90       91.81       91.64       91.39       91.07       90.68       90.24       89.76       89.23    
        88.67       88.09       87.48       86.86       86.23       85.59       84.94       84.30       83.66       83.03    
        82.41       81.81       81.24       80.70       80.18       79.71       79.27       78.86       78.49       78.13    
        77.79       77.47       77.16       76.85       76.55       76.25       75.94       75.63       75.31       74.99    
        74.66       74.31       73.93       73.51       73.05       72.55       71.99       71.37       70.70       70.00    
  21  -1000.0       92.65       92.55       92.35       92.06       91.70       91.26       90.77       90.24       89.66    
        89.06       88.42       87.77       87.10       86.42       85.74       85.05       84.37       83.69       83.02    
        82.36       81.72       81.11       80.54       80.02       79.54       79.10       78.71       78.34       78.01    
        77.69       77.39       77.10       76.82       76.54       76.26       75.97       75.68       75.38       75.09    
        74.79       74.46       74.10       73.71       73.26       72.76       72.18       71.53       70.79       70.00    
  22  -1000.0       93.49       93.37       93.14       92.81       92.39       91.89       91.34       90.75       90.12    
        89.46       88.77       88.07       87.35       86.62       85.88       85.15       84.42       83.70       82.98    
        82.27       81.59       80.94       80.34       79.80       79.31       78.89       78.51       78.18       77.86    
        77.58       77.30       77.04       76.78       76.53       76.27       76.01       75.74       75.43       75.21    
        74.94       74.65       74.32       73.95       73.53       73.04       72.46       71.76       70.93       70.00    
  23  -1000.0       94.43       94.29       94.02       93.63       93.14       92.57       91.95       91.29       90.59    
        89.87       89.13       88.37       87.59       86.81       86.02       85.24       84.45       83.67       82.90    
        82.15       81.42       80.72       80.08       79.51       79.03       78.63       78.28       77.98       77.70    
        77.44       77.20       76.97       76.74       76.52       76.30       76.07       75.83       75.59       75.37    
        75.13       74.86       74.57       74.24       73.86       73.40       72.84       72.11       71.17       70.00    
  24  -1000.0       95.50       95.34       95.01       94.53       93.95       93.29       92.59       91.85       91.08    
        90.29       89.49       88.67       87.84       87.00       86.16       85.32       84.48       83.64       82.81    
        82.00       81.20       80.44       79.74       79.13       78.68       78.31       78.01       77.75       77.52    
        77.30       77.10       76.90       76.70       76.51       76.32       76.13       75.94       75.74       75.54    
        75.33       75.11       74.87       74.59       74.27       73.88       73.37       72.66       71.61       70.00    
  25  -1000.0       96.71       96.53       96.14       95.52       94.82       94.05       93.25       92.43       91.58    
        90.72       89.85       88.97       88.08       87.19       86.29       85.39       84.49       83.59       82.70    
        81.82       80.95       80.10       79.30       78.60       78.22       77.93       77.70       77.50       77.32    
        77.15       76.98       76.82       76.66       76.51       76.36       76.20       76.04       75.89       75.72    
        75.56       75.38       75.19       74.98       74.75       74.46       74.09       73.55       72.57       70.00    
  26  -1000.0       95.50       95.34       95.01       94.53       93.95       93.30       92.59       91.85       91.09    
        90.30       89.49       88.68       87.85       87.01       86.17       85.32       84.48       83.65       82.82    
        82.00       81.21       80.45       79.74       79.14       78.68       78.32       78.02       77.76       77.52    
        77.30       77.10       76.90       76.71       76.52       76.33       76.14       75.95       75.76       75.56    
        75.34       75.12       74.87       74.59       74.27       73.88       73.37       72.66       71.61       70.00    
  27  -1000.0       94.43       94.29       94.02       93.63       93.14       92.58       91.96       91.30       90.60    
        89.88       89.14       88.38       87.61       86.83       86.04       85.25       84.46       83.68       82.91    
        82.16       81.43       80.74       80.09       79.52       79.04       78.64       78.29       77.99       77.71    
        77.45       77.21       76.98       76.75       76.53       76.31       76.09       75.87       75.64       75.40    
        75.15       74.88       74.58       74.25       73.87       73.41       72.84       72.11       71.17       70.00    
  28  -1000.0       93.49       93.37       93.14       92.81       92.39       91.90       91.36       90.76       90.13    
        89.47       88.79       88.09       87.37       86.64       85.90       85.17       84.43       83.70       82.98    
        82.28       81.61       80.96       80.36       79.81       79.33       78.90       78.53       78.19       77.87    
        77.59       77.31       77.05       76.79       76.54       76.30       76.05       75.79       75.53       75.26    
        74.97       74.67       74.33       73.96       73.53       73.04       72.46       71.76       70.93       70.00    
  29  -1000.0       92.65       92.55       92.36       92.07       91.71       91.28       90.79       90.26       89.68    
        89.08       88.45       87.80       87.14       86.46       85.77       85.08       84.39       83.71       83.03    
        82.38       81.74       81.14       80.57       80.04       79.55       79.12       78.72       78.36       78.02    
        77.70       77.40       77.11       76.83       76.56       76.28       76.01       75.72       75.44       75.14    
        74.82       74.48       74.12       73.72       73.27       72.76       72.19       71.53       70.79       70.00    
  30  -1000.0       91.90       91.82       91.65       91.40       91.08       90.70       90.26       89.78       89.26    
        88.71       88.13       87.52       86.90       86.27       85.63       84.98       84.33       83.69       83.06    
        82.44       81.84       81.27       80.72       80.21       79.73       79.29       78.88       78.50       78.14    
        77.81       77.48       77.17       76.87       76.57       76.27       75.97       75.66       75.35       75.03    
        74.69       74.33       73.94       73.52       73.06       72.55       71.99       71.37       70.70       70.00    
  31  -1000.0       91.23       91.16       91.01       90.79       90.50       90.16       89.77       89.33       88.86    
        88.35       87.81       87.26       86.68       86.09       85.48       84.88       84.27       83.67       83.07    
        82.48       81.92       81.37       80.84       80.34       79.87       79.43       79.01       78.62       78.25    
        77.89       77.55       77.22       76.90       76.58       76.26       75.94       75.61       75.28       74.93    
        74.57       74.20       73.79       73.36       72.90       72.39       71.85       71.26       70.64       70.00    
  32  -1000.0       90.63       90.57       90.43       90.24       89.98       89.67       89.32       88.92       88.48    
        88.01       87.52       87.00       86.46       85.91       85.34       84.77       84.20       83.63       83.06    
        82.51       81.97       81.44       80.93       80.44       79.98       79.54       79.12       78.72       78.34    
        77.97       77.61       77.26       76.92       76.59       76.25       75.91       75.57       75.22       74.85    
        74.48       74.09       73.67       73.23       72.77       72.27       71.74       71.18       70.60       70.00    
  33  -1000.0       90.09       90.03       89.91       89.73       89.50       89.22       88.90       88.53       88.13    
        87.70       87.24       86.75       86.25       85.73       85.20       84.66       84.12       83.58       83.04    
        82.51       81.99       81.49       81.00       80.52       80.06       79.62       79.20       78.80       78.41    
        78.03       77.66       77.30       76.94       76.59       76.24       75.89       75.53       75.16       74.79    
        74.40       74.00       73.57       73.13       72.67       72.18       71.66       71.12       70.57       70.00    
  34  -1000.0       89.61       89.55       89.44       89.28       89.07       88.81       88.51       88.17       87.80    
        87.40       86.97       86.52       86.05       85.56       85.06       84.55       84.04       83.52       83.01    
        82.51       82.01       81.52       81.04       80.58       80.13       79.69       79.27       78.86       78.46    
        78.08       77.70       77.33       76.96       76.60       76.23       75.87       75.50       75.12       74.73    
        74.33       73.92       73.50       73.05       72.59       72.10       71.60       71.08       70.54       70.00    
  35  -1000.0       89.17       89.12       89.02       88.87       88.67       88.44       88.16       87.85       87.50    
        87.12       86.72       86.30       85.86       85.40       84.92       84.44       83.95       83.46       82.98    
        82.49       82.01       81.54       81.07       80.62       80.17       79.74       79.32       78.91       78.51    
        78.12       77.73       77.35       76.98       76.60       76.23       75.85       75.47       75.08       74.68    
        74.28       73.86       73.43       72.99       72.52       72.05       71.55       71.05       70.53       70.00    
  36  -1000.0       88.78       88.73       88.63       88.50       88.31       88.09       87.84       87.54       87.22    
        86.87       86.49       86.09       85.67       85.24       84.79       84.33       83.87       83.40       82.93    
        82.46       82.00       81.54       81.09       80.64       80.21       79.78       79.36       78.95       78.55    
        78.15       77.76       77.37       76.99       76.60       76.22       75.83       75.44       75.05       74.65    
        74.23       73.81       73.38       72.93       72.47       72.00       71.52       71.02       70.51       70.00    
  37  -1000.0       88.43       88.38       88.29       88.16       87.99       87.78       87.54       87.27       86.96    
        86.63       86.28       85.90       85.50       85.09       84.66       84.23       83.78       83.33       82.88    
        82.43       81.98       81.54       81.10       80.66       80.23       79.81       79.39       78.98       78.57    
        78.17       77.78       77.39       77.00       76.61       76.22       75.82       75.42       75.02       74.61    
        74.20       73.77       73.34       72.89       72.43       71.97       71.49       71.00       70.50       70.00    
  38  -1000.0       88.12       88.08       87.99       87.86       87.70       87.50       87.27       87.02       86.73    
        86.42       86.08       85.72       85.34       84.95       84.54       84.12       83.70       83.27       82.83    
        82.40       81.96       81.53       81.10       80.67       80.24       79.82       79.41       79.00       78.59    
        78.19       77.79       77.40       77.00       76.61       76.21       75.81       75.41       75.00       74.59    
        74.17       73.74       73.30       72.86       72.40       71.94       71.46       70.98       70.49       70.00    
  39  -1000.0       87.85       87.81       87.72       87.60       87.44       87.25       87.03       86.79       86.51    
        86.22       85.90       85.56       85.20       84.82       84.43       84.03       83.62       83.20       82.78    
        82.36       81.94       81.51       81.09       80.67       80.25       79.84       79.42       79.02       78.61    
        78.21       77.81       77.41       77.01       76.61       76.20       75.80       75.39       74.98       74.57    
        74.14       73.71       73.28       72.83       72.38       71.91       71.44       70.97       70.49       70.00    
  40  -1000.0       87.62       87.57       87.48       87.36       87.21       87.02       86.81       86.58       86.32    
        86.03       85.73       85.40       85.06       84.70       84.32       83.94       83.54       83.14       82.73    
        82.32       81.91       81.50       81.08       80.67       80.25       79.84       79.43       79.03       78.62    
        78.22       77.81       77.41       77.01       76.61       76.20       75.79       75.38       74.97       74.55    
        74.12       73.69       73.25       72.81       72.36       71.90       71.43       70.96       70.48       70.00    
  41  -1000.0       87.44       87.37       87.28       87.15       87.00       86.82       86.62       86.39       86.14    
        85.87       85.58       85.27       84.94       84.59       84.23       83.85       83.47       83.08       82.69    
        82.29       81.88       81.48       81.07       80.66       80.25       79.84       79.44       79.03       78.63    
        78.22       77.82       77.41       77.01       76.60       76.20       75.79       75.37       74.95       74.53    
        74.11       73.67       73.23       72.79       72.34       71.88       71.42       70.95       70.48       70.00    
  42  -1000.0       87.24       87.20       87.09       86.96       86.81       86.64       86.44       86.22       85.98    
        85.72       85.44       85.14       84.82       84.49       84.14       83.78       83.41       83.03       82.64    
        82.25       81.85       81.46       81.05       80.65       80.25       79.84       79.44       79.03       78.63    
        78.23       77.82       77.42       77.01       76.60       76.19       75.78       75.36       74.94       74.52    
        74.09       73.66       73.22       72.78       72.33       71.87       71.41       70.94       70.47       70.00    
  43  -1000.0       87.07       87.02       86.93       86.79       86.64       86.47       86.28       86.07       85.84    
        85.59       85.32       85.03       84.72       84.40       84.06       83.71       83.35       82.98       82.60    
        82.22       81.83       81.44       81.04       80.64       80.24       79.84       79.44       79.04       78.63    
        78.23       77.82       77.42       77.01       76.60       76.19       75.77       75.36       74.94       74.51    
        74.08       73.65       73.21       72.76       72.32       71.86       71.40       70.94       70.47       70.00    
  44  -1000.0     -1000.0       86.87       86.77       86.64       86.49       86.32       86.14       85.93       85.71    
        85.47       85.21       84.93       84.64       84.32       83.99       83.65       83.30       82.93       82.56    
        82.19       81.80       81.42       81.03       80.63       80.24       79.84       79.44       79.04       78.63    
        78.23       77.82       77.42       77.01       76.60       76.18       75.77       75.35       74.93       74.50    
        74.07       73.64       73.20       72.76       72.31       71.85       71.40       70.94       70.47       70.00    
  45  -1000.0     -1000.0     -1000.0       86.63       86.50       86.35       86.18       86.00       85.81       85.60    
        85.37       85.12       84.85       84.56       84.25       83.93       83.60       83.25       82.90       82.53    
        82.16       81.78       81.40       81.01       80.62       80.23       79.83       79.43       79.03       78.63    
        78.23       77.82       77.42       77.01       76.60       76.18       75.77       75.35       74.92       74.50    
        74.07       73.63       73.19       72.75       72.30       71.85       71.39       70.93       70.47       70.00    
  46  -1000.0     -1000.0     -1000.0     -1000.0       86.37       86.22       86.06       85.89       85.70       85.50    
        85.28       85.04       84.78       84.50       84.20       83.88       83.55       83.21       82.86       82.51    
        82.14       81.77       81.39       81.00       80.62       80.22       79.83       79.43       79.03       78.63    
        78.23       77.82       77.42       77.01       76.59       76.18       75.76       75.34       74.92       74.49    
        74.06       73.63       73.19       72.74       72.30       71.84       71.39       70.93       70.47       70.00    
  47  -1000.0     -1000.0     -1000.0     -1000.0     -1000.0       86.12       85.96       85.78       85.61       85.42    
        85.21       84.98       84.72       84.45       84.16       83.85       83.52       83.19       82.84       82.49    
        82.12       81.75       81.38       80.99       80.61       80.22       79.83       79.43       79.03       78.63    
        78.23       77.82       77.41       77.01       76.59       76.18       75.76       75.34       74.92       74.49    
        74.06       73.62       73.18       72.74       72.29       71.84       71.39       70.93       70.47       70.00    
  48  -1000.0     -1000.0     -1000.0     -1000.0     -1000.0     -1000.0       85.88       85.72       85.52       85.35    
        85.15       84.93       84.68       84.42       84.13       83.82       83.50       83.17       82.82       82.47    
        82.11       81.74       81.37       80.99       80.60       80.22       79.82       79.43       79.03       78.63    
        78.23       77.82       77.41       77.00       76.59       76.18       75.76       75.34       74.91       74.49    
        74.05       73.62       73.18       72.74       72.29       71.84       71.39       70.93       70.47       70.00    
  49  -1000.0     -1000.0     -1000.0     -1000.0     -1000.0     -1000.0     -1000.0       85.68       85.50       85.29    
        85.12       84.90       84.66       84.40       84.11       83.81       83.49       83.16       82.82       82.47    
        82.11       81.74       81.36       80.99       80.60       80.21       79.82       79.43       79.03       78.63    
        78.23       77.82       77.41       77.00       76.59       76.18       75.76       75.34       74.91       74.48    
        74.05       73.62       73.18       72.74       72.29       71.84       71.38       70.93       70.46       70.00    
  50  -1000.0     -1000.0     -1000.0     -1000.0     -1000.0     -1000.0     -1000.0     -1000.0     -1000.0     -1000.0    
      -1000.0     -1000.0     -1000.0     -1000.0     -1000.0     -1000.0     -1000.0     -1000.0     -1000.0     -1000.0    
      -1000.0     -1000.0     -1000.0     -1000.0     -1000.0     -1000.0     -1000.0     -1000.0     -1000.0     -1000.0    
      -1000.0     -1000.0     -1000.0     -1000.0     -1000.0     -1000.0     -1000.0     -1000.0     -1000.0     -1000.0    
      -1000.0     -1000.0     -1000.0     -1000.0     -1000.0     -1000.0     -1000.0     -1000.0     -1000.0       70.00    
1
              HEAD IN LAYER   3 AT END OF TIME STEP   1 IN STRESS PERIOD    1
  ---------------------------------------------------------------------------

            1           2           3           4           5           6           7           8           9          10
           11          12          13          14          15          16          17          18          19          20
           21          22          23          24          25          26          27          28          29          30
           31          32          33          34          35          36          37          38          39          40
[...]
        82.15       81.42       80.72       80.08       79.51       79.03       78.63       78.28       77.98       77.70    
        77.44       77.20       76.97       76.74       76.52       76.30       76.07       75.83       75.59       75.37    
        75.13       74.86       74.57       74.24       73.86       73.40       72.84       72.11       71.17       70.00    
  24  -1000.0       95.50       95.34       95.01       94.53       93.95       93.29       92.59       91.85       91.08    
        90.29       89.49       88.67       87.84       87.00       86.16       85.32       84.48       83.64       82.81    
        82.00       81.20       80.44       79.74       79.13       78.68       78.31       78.01       77.75       77.52    
        77.30       77.10       76.90       76.70       76.51       76.32       76.13       75.94       75.74       75.54    
        75.33       75.11       74.87       74.59       74.27       73.88       73.37       72.66       71.61       70.00    
  25  -1000.0       96.71       96.53       96.14       95.52       94.81       94.05       93.25       92.43       91.58    
        90.72       89.85       88.97       88.08       87.19       86.29       85.39       84.49       83.59       82.70    
        81.82       80.95       80.11       79.31       78.61       78.23       77.94       77.71       77.51       77.32    
        77.15       76.98       76.82       76.67       76.51       76.35       76.20       76.04       75.88       75.72    
        75.55       75.38       75.19       74.98       74.73       74.45       74.07       73.53       72.53       70.00    
  26  -1000.0       95.50       95.34       95.01       94.53       93.95       93.30       92.59       91.85       91.09    
        90.30       89.49       88.68       87.85       87.01       86.17       85.32       84.48       83.65       82.82    
        82.00       81.21       80.45       79.74       79.14       78.68       78.32       78.02       77.76       77.52    
        77.30       77.10       76.90       76.71       76.52       76.33       76.14       75.95       75.76       75.56    
        75.34       75.12       74.87       74.59       74.27       73.88       73.37       72.66       71.61       70.00    
  27  -1000.0       94.43       94.29       94.02       93.63       93.14       92.58       91.96       91.30       90.60    
        89.88       89.14       88.38       87.61       86.83       86.04       85.25       84.46       83.68       82.91    
        82.16       81.43       80.74       80.09       79.52       79.04       78.64       78.29       77.99       77.71    
        77.45       77.21       76.98       76.75       76.53       76.31       76.09       75.87       75.64       75.40    
        75.15       74.88       74.58       74.25       73.87       73.41       72.84       72.11       71.17       70.00    
  28  -1000.0       93.49       93.37       93.14       92.81       92.39       91.90       91.36       90.76       90.13    
        89.47       88.79       88.09       87.37       86.64       85.90       85.17       84.43       83.70       82.98    
        82.28       81.61       80.96       80.36       79.81       79.33       78.90       78.53       78.19       77.87    
        77.59       77.31       77.05       76.79       76.54       76.30       76.05       75.79       75.53       75.26    
        74.97       74.67       74.33       73.96       73.53       73.04       72.46       71.76       70.93       70.00    
  29  -1000.0       92.65       92.55       92.36       92.07       91.71       91.28       90.79       90.26       89.68    
        89.08       88.45       87.80       87.14       86.46       85.77       85.08       84.39       83.71       83.03    
        82.38       81.74       81.14       80.57       80.04       79.55       79.12       78.72       78.36       78.02    
        77.70       77.40       77.11       76.83       76.56       76.28       76.01       75.72       75.44       75.14    
        74.82       74.48       74.12       73.72       73.27       72.76       72.19       71.53       70.79       70.00    
  30  -1000.0       91.90       91.82       91.65       91.40       91.08       90.70       90.26       89.78       89.26    
        88.71       88.13       87.52       86.90       86.27       85.63       84.98       84.33       83.69       83.06    
        82.44       81.84       81.27       80.72       80.21       79.73       79.29       78.88       78.50       78.14    
        77.81       77.48       77.17       76.87       76.57       76.27       75.97       75.66       75.35       75.03    
        74.69       74.33       73.94       73.52       73.06       72.55       71.99       71.37       70.70       70.00    
  31  -1000.0       91.23       91.16       91.01       90.79       90.50       90.16       89.77       89.33       88.86    
        88.35       87.81       87.26       86.68       86.09       85.48       84.88       84.27       83.67       83.07    
        82.48       81.92       81.37       80.84       80.34       79.87       79.43       79.01       78.62       78.25    
        77.89       77.55       77.22       76.90       76.58       76.26       75.94       75.61       75.28       74.93    
        74.57       74.20       73.79       73.36       72.90       72.39       71.85       71.26       70.64       70.00    
  32  -1000.0       90.63       90.57       90.43       90.24       89.98       89.67       89.32       88.92       88.48    
        88.01       87.52       87.00       86.46       85.91       85.34       84.77       84.20       83.63       83.06    
        82.51       81.97       81.44       80.93       80.44       79.98       79.54       79.12       78.72       78.34    
        77.97       77.61       77.26       76.92       76.59       76.25       75.91       75.57       75.22       74.85    
        74.48       74.09       73.67       73.23       72.77       72.27       71.74       71.18       70.60       70.00    
  33  -1000.0       90.09       90.03       89.91       89.73       89.50       89.22       88.90       88.53       88.13    
        87.70       87.24       86.75       86.25       85.73       85.20       84.66       84.12       83.58       83.04    
        82.51       81.99       81.49       81.00       80.52       80.06       79.62       79.20       78.80       78.41    
        78.03       77.66       77.30       76.94       76.59       76.24       75.89       75.53       75.16       74.79    
        74.40       74.00       73.57       73.13       72.67       72.18       71.66       71.12       70.57       70.00    
  34  -1000.0       89.60       89.55       89.44       89.28       89.07       88.81       88.51       88.17       87.80    
        87.40       86.97       86.52       86.05       85.56       85.06       84.55       84.04       83.52       83.01    
        82.51       82.01       81.52       81.04       80.58       80.13       79.69       79.27       78.86       78.46    
        78.08       77.70       77.33       76.96       76.60       76.23       75.87       75.50       75.12       74.73    
        74.33       73.92       73.50       73.05       72.59       72.10       71.60       71.08       70.54       70.00    
  35  -1000.0       89.17       89.12       89.02       88.87       88.67       88.44       88.16       87.85       87.50    
        87.12       86.72       86.30       85.86       85.40       84.92       84.44       83.95       83.46       82.98    
        82.49       82.01       81.54       81.07       80.62       80.17       79.74       79.32       78.91       78.51    
        78.12       77.73       77.35       76.98       76.60       76.23       75.85       75.47       75.08       74.68    
        74.28       73.86       73.43       72.99       72.52       72.05       71.55       71.05       70.53       70.00    
  36  -1000.0       88.78       88.73       88.63       88.50       88.31       88.09       87.84       87.54       87.22    
        86.87       86.49       86.09       85.67       85.24       84.79       84.33       83.87       83.40       82.93    
        82.46       82.00       81.54       81.09       80.64       80.21       79.78       79.36       78.95       78.55    
        78.15       77.76       77.37       76.99       76.60       76.22       75.83       75.44       75.05       74.65    
        74.23       73.81       73.38       72.93       72.47       72.00       71.52       71.02       70.51       70.00    
  37  -1000.0       88.43       88.38       88.29       88.16       87.99       87.78       87.54       87.27       86.96    
        86.63       86.28       85.90       85.50       85.09       84.66       84.23       83.78       83.33       82.88    
        82.43       81.98       81.54       81.10       80.66       80.23       79.81       79.39       78.98       78.57    
        78.17       77.78       77.39       77.00       76.61       76.22       75.82       75.42       75.02       74.61    
        74.20       73.77       73.34       72.89       72.43       71.97       71.49       71.00       70.50       70.00    
  38  -1000.0       88.12       88.08       87.99       87.86       87.70       87.50       87.27       87.02       86.73    
        86.42       86.08       85.72       85.34       84.95       84.54       84.12       83.70       83.27       82.83    
        82.40       81.96       81.53       81.10       80.67       80.24       79.82       79.41       79.00       78.59    
        78.19       77.79       77.40       77.00       76.61       76.21       75.81       75.41       75.00       74.59    
        74.17       73.74       73.30       72.86       72.40       71.94       71.46       70.98       70.49       70.00    
  39  -1000.0       87.85       87.81       87.72       87.60       87.44       87.25       87.03       86.79       86.51    
        86.22       85.90       85.56       85.20       84.82       84.43       84.03       83.62       83.20       82.78    
        82.36       81.94       81.51       81.09       80.67       80.25       79.84       79.42       79.02       78.61    
        78.21       77.81       77.41       77.01       76.61       76.20       75.80       75.39       74.98       74.57    
        74.14       73.71       73.28       72.83       72.38       71.91       71.44       70.97       70.49       70.00    
  40  -1000.0       87.62       87.57       87.48       87.36       87.21       87.02       86.81       86.58       86.32    
        86.03       85.73       85.40       85.06       84.70       84.32       83.94       83.54       83.14       82.73    
        82.32       81.91       81.50       81.08       80.67       80.25       79.84       79.43       79.03       78.62    
        78.22       77.81       77.41       77.01       76.61       76.20       75.79       75.38       74.97       74.55    
        74.12       73.69       73.25       72.81       72.36       71.90       71.43       70.96       70.48       70.00    
  41  -1000.0       87.44       87.37       87.28       87.15       87.00       86.82       86.62       86.39       86.14    
        85.87       85.58       85.27       84.94       84.59       84.23       83.85       83.47       83.08       82.69    
        82.29       81.88       81.48       81.07       80.66       80.25       79.84       79.44       79.03       78.63    
        78.22       77.82       77.41       77.01       76.60       76.20       75.79       75.37       74.95       74.53    
        74.11       73.67       73.23       72.79       72.34       71.88       71.42       70.95       70.48       70.00    
  42  -1000.0     -1000.0       87.20       87.09       86.96       86.81       86.64       86.44       86.22       85.98    
        85.72       85.44       85.14       84.82       84.49       84.14       83.78       83.41       83.03       82.64    
        82.25       81.85       81.46       81.05       80.65       80.25       79.84       79.44       79.03       78.63    
        78.23       77.82       77.42       77.01       76.60       76.19       75.78       75.36       74.94       74.52    
        74.09       73.66       73.22       72.78       72.33       71.87       71.41       70.94       70.47       70.00    
  43  -1000.0     -1000.0     -1000.0       86.93       86.79       86.64       86.47       86.28       86.07       85.84    
        85.59       85.32       85.03       84.72       84.40       84.06       83.71       83.35       82.98       82.60    
        82.22       81.83       81.44       81.04       80.64       80.24       79.84       79.44       79.04       78.63    
        78.23       77.82       77.42       77.01       76.60       76.19       75.77       75.36       74.94       74.51    
        74.08       73.65       73.21       72.76       72.32       71.86       71.40       70.94       70.47       70.00    
  44  -1000.0     -1000.0     -1000.0     -1000.0       86.64       86.49       86.32       86.13       85.93       85.71    
        85.47       85.21       84.93       84.64       84.32       83.99       83.65       83.30       82.93       82.56    
        82.19       81.80       81.42       81.03       80.63       80.24       79.84       79.44       79.04       78.63    
        78.23       77.82       77.42       77.01       76.60       76.18       75.77       75.35       74.93       74.50    
        74.07       73.64       73.20       72.76       72.31       71.85       71.40       70.94       70.47       70.00    
  45  -1000.0     -1000.0     -1000.0     -1000.0     -1000.0       86.35       86.18       86.00       85.81       85.60    
        85.37       85.12       84.85       84.56       84.25       83.93       83.60       83.25       82.90       82.53    
        82.16       81.78       81.40       81.01       80.62       80.23       79.83       79.43       79.03       78.63    
        78.23       77.82       77.42       77.01       76.60       76.18       75.77       75.35       74.92       74.50    
        74.07       73.63       73.19       72.75       72.30       71.85       71.39       70.93       70.47       70.00    
  46  -1000.0     -1000.0     -1000.0     -1000.0     -1000.0     -1000.0       86.06       85.89       85.70       85.50    
        85.28       85.04       84.78       84.50       84.20       83.88       83.55       83.21       82.86       82.51    
        82.14       81.77       81.39       81.00       80.62       80.22       79.83       79.43       79.03       78.63    
        78.23       77.82       77.42       77.01       76.59       76.18       75.76       75.34       74.92       74.49    
        74.06       73.63       73.19       72.74       72.30       71.84       71.39       70.93       70.47       70.00    
  47  -1000.0     -1000.0     -1000.0     -1000.0     -1000.0     -1000.0     -1000.0       85.78       85.61       85.42    
        85.21       84.98       84.72       84.45       84.16       83.85       83.52       83.19       82.84       82.49    
        82.12       81.75       81.38       80.99       80.61       80.22       79.83       79.43       79.03       78.63    
        78.23       77.82       77.41       77.01       76.59       76.18       75.76       75.34       74.92       74.49    
        74.06       73.62       73.18       72.74       72.29       71.84       71.39       70.93       70.47       70.00    
  48  -1000.0     -1000.0     -1000.0     -1000.0     -1000.0     -1000.0     -1000.0     -1000.0       85.52       85.35    
        85.15       84.93       84.68       84.42       84.13       83.82       83.50       83.17       82.82       82.47    
        82.11       81.74       81.37       80.99       80.60       80.22       79.82       79.43       79.03       78.63    
        78.23       77.82       77.41       77.00       76.59       76.18       75.76       75.34       74.91       74.49    
        74.05       73.62       73.18       72.74       72.29       71.84       71.39       70.93       70.47       70.00    
  49  -1000.0     -1000.0     -1000.0     -1000.0     -1000.0     -1000.0     -1000.0     -1000.0     -1000.0       85.29    
        85.12       84.90       84.66       84.40       84.11       83.81       83.49       83.16       82.82       82.47    
        82.11       81.74       81.36       80.99       80.60       80.21       79.82       79.43       79.03       78.63    
        78.23       77.82       77.41       77.00       76.59       76.18       75.76       75.34       74.91       74.48    
        74.05       73.62       73.18       72.74       72.29       71.84       71.38       70.93       70.46       70.00    
  50  -1000.0     -1000.0     -1000.0     -1000.0     -1000.0     -1000.0     -1000.0     -1000.0     -1000.0     -1000.0    
      -1000.0     -1000.0     -1000.0     -1000.0     -1000.0     -1000.0     -1000.0     -1000.0     -1000.0     -1000.0    
      -1000.0     -1000.0     -1000.0     -1000.0     -1000.0     -1000.0     -1000.0     -1000.0     -1000.0     -1000.0    
      -1000.0     -1000.0     -1000.0     -1000.0     -1000.0     -1000.0     -1000.0     -1000.0     -1000.0     -1000.0    
      -1000.0     -1000.0     -1000.0     -1000.0     -1000.0     -1000.0     -1000.0     -1000.0     -1000.0       70.00    

 HEAD WILL BE SAVED ON UNIT   51 AT END OF TIME STEP    1, STRESS PERIOD    1

 DRAWDOWN WILL BE SAVED ON UNIT   52 AT END OF TIME STEP    1, STRESS PERIOD    1
1
  VOLUMETRIC BUDGET FOR ENTIRE MODEL AT END OF TIME STEP    1, STRESS PERIOD   1
  ------------------------------------------------------------------------------

     CUMULATIVE VOLUMES      L**3       RATES FOR THIS TIME STEP      L**3/T
     ------------------                 ------------------------

           IN:                                      IN:
           ---                                      ---
             STORAGE =           0.0000               STORAGE =           0.0000
       CONSTANT HEAD =           0.0000         CONSTANT HEAD =           0.0000
               WELLS =         375.0000                 WELLS =         375.0000
       RIVER LEAKAGE =      283027.0000         RIVER LEAKAGE =      283027.0000
                  ET =           0.0000                    ET =           0.0000
            RECHARGE =       20160.0000              RECHARGE =       20160.0000

            TOTAL IN =      303562.0000              TOTAL IN =      303562.0000

          OUT:                                     OUT:
          ----                                     ----
             STORAGE =           0.0000               STORAGE =           0.0000
       CONSTANT HEAD =      222913.7344         CONSTANT HEAD =      222913.7344
               WELLS =        6000.0000                 WELLS =        6000.0000
       RIVER LEAKAGE =       67542.0547         RIVER LEAKAGE =       67542.0547
                  ET =        7105.9424                    ET =        7105.9424
            RECHARGE =           0.0000              RECHARGE =           0.0000

           TOTAL OUT =      303561.7188             TOTAL OUT =      303561.7188

            IN - OUT =           0.2812              IN - OUT =           0.2812

 PERCENT DISCREPANCY =           0.00     PERCENT DISCREPANCY =           0.00






         TIME SUMMARY AT END OF TIME STEP    1 IN STRESS PERIOD    1
                    SECONDS     MINUTES      HOURS       DAYS        YEARS
                    -----------------------------------------------------------
   TIME STEP LENGTH  86400.      1440.0      24.000      1.0000     2.73785E-03
 STRESS PERIOD TIME  86400.      1440.0      24.000      1.0000     2.73785E-03
         TOTAL TIME  86400.      1440.0      24.000      1.0000     2.73785E-03
1

 Run end date and time (yyyy/mm/dd hh:mm:ss): 2026/02/24 16:21:55
 Elapsed run time: 15.808 Seconds

