                                  MODFLOW-2005     
      U.S. GEOLOGICAL SURVEY MODULAR FINITE-DIFFERENCE GROUND-WATER FLOW MODEL
                            VERSION 1.12.00 2/3/2017

 LIST FILE: static_ensemble_1311331.list
                         UNIT    2

 OPENING static_ensemble_1311331.dis
 FILE TYPE:DIS   UNIT   11   STATUS:OLD    
 FORMAT:FORMATTED              ACCESS:SEQUENTIAL          

 OPENING static_ensemble_1311331.bas
 FILE TYPE:BAS6   UNIT   13   STATUS:OLD    
 FORMAT:FORMATTED              ACCESS:SEQUENTIAL          

 OPENING static_ensemble_1311331.lpf
 FILE TYPE:LPF   UNIT   15   STATUS:OLD    
 FORMAT:FORMATTED              ACCESS:SEQUENTIAL          

 OPENING static_ensemble_1311331.evt
 FILE TYPE:EVT   UNIT   22   STATUS:OLD    
 FORMAT:FORMATTED              ACCESS:SEQUENTIAL          

 OPENING static_ensemble_1311331.rch
 FILE TYPE:RCH   UNIT   19   STATUS:OLD    
 FORMAT:FORMATTED              ACCESS:SEQUENTIAL          

 OPENING static_ensemble_1311331.riv
 FILE TYPE:RIV   UNIT   18   STATUS:OLD    
 FORMAT:FORMATTED              ACCESS:SEQUENTIAL          

 OPENING static_ensemble_1311331.wel
 FILE TYPE:WEL   UNIT   20   STATUS:OLD    
 FORMAT:FORMATTED              ACCESS:SEQUENTIAL          

 OPENING static_ensemble_1311331.oc
 FILE TYPE:OC   UNIT   14   STATUS:OLD    
 FORMAT:FORMATTED              ACCESS:SEQUENTIAL          

 OPENING static_ensemble_1311331.pcg
 FILE TYPE:PCG   UNIT   27   STATUS:OLD    
 FORMAT:FORMATTED              ACCESS:SEQUENTIAL          

 OPENING static_ensemble_1311331.cbc
 FILE TYPE:DATA(BINARY)   UNIT   53   STATUS:REPLACE
 FORMAT:UNFORMATTED            ACCESS:STREAM              

 OPENING static_ensemble_1311331.hds
 FILE TYPE:DATA(BINARY)   UNIT   51   STATUS:REPLACE
 FORMAT:UNFORMATTED            ACCESS:STREAM              

 OPENING static_ensemble_1311331.ddn
 FILE TYPE:DATA(BINARY)   UNIT   52   STATUS:REPLACE
 FORMAT:UNFORMATTED            ACCESS:STREAM              

 BAS -- BASIC PACKAGE, VERSION 7, 5/2/2005 INPUT READ FROM UNIT   13
 
 MODFLOW was compiled using mixed precision
 Precision of REAL variables:           6
 Precision of DOUBLE PRECISION variables:          15

 DISCRETIZATION INPUT DATA READ FROM UNIT   11
 # DIS package for MODFLOW-2005 generated by Flopy 3.9.5
    3 LAYERS        50 ROWS        50 COLUMNS
    1 STRESS PERIOD(S) IN SIMULATION
 MODEL TIME UNIT IS DAYS
 MODEL LENGTH UNIT IS METERS
  Confining bed flag for each layer:
   0   0   0

                     DELR =   1000.00    

                     DELC =   1000.00    



           TOP ELEVATION OF LAYER 1
 READING ON UNIT   11 WITH FORMAT: (50E15.6)           



             MODEL LAYER BOTTOM EL. FOR LAYER   1
 READING ON UNIT   11 WITH FORMAT: (50E15.6)           



             MODEL LAYER BOTTOM EL. FOR LAYER   2
 READING ON UNIT   11 WITH FORMAT: (50E15.6)           



             MODEL LAYER BOTTOM EL. FOR LAYER   3
 READING ON UNIT   11 WITH FORMAT: (50E15.6)           


 STRESS PERIOD     LENGTH       TIME STEPS     MULTIPLIER FOR DELT    SS FLAG
 ----------------------------------------------------------------------------
        1         1.000000          1                    1.000         SS

 STEADY-STATE SIMULATION



 
 # BAS6 package for MODFLOW-2005 generated by Flopy 3.9.5                        
 THE FREE FORMAT OPTION HAS BEEN SELECTED



                     BOUNDARY ARRAY FOR LAYER   1
 READING ON UNIT   13 WITH FORMAT: (50I10)             



                     BOUNDARY ARRAY FOR LAYER   2
 READING ON UNIT   13 WITH FORMAT: (50I10)             



                     BOUNDARY ARRAY FOR LAYER   3
 READING ON UNIT   13 WITH FORMAT: (50I10)             

 AQUIFER HEAD WILL BE SET TO  -999.99     AT ALL NO-FLOW NODES (IBOUND=0).



                       INITIAL HEAD FOR LAYER   1
 READING ON UNIT   13 WITH FORMAT: (50E15.6)           



                       INITIAL HEAD FOR LAYER   2
 READING ON UNIT   13 WITH FORMAT: (50E15.6)           



                       INITIAL HEAD FOR LAYER   3
 READING ON UNIT   13 WITH FORMAT: (50E15.6)           
 # OC package for MODFLOW-2005 generated by Flopy 3.9.5

 OUTPUT CONTROL IS SPECIFIED ONLY AT TIME STEPS FOR WHICH OUTPUT IS DESIRED
 COMPACT CELL-BY-CELL BUDGET FILES WILL BE WRITTEN
 AUXILIARY DATA WILL BE SAVED IN CELL-BY-CELL BUDGET FILES
 HEAD PRINT FORMAT CODE IS   0    DRAWDOWN PRINT FORMAT CODE IS   0
 HEADS WILL BE SAVED ON UNIT   51    DRAWDOWNS WILL BE SAVED ON UNIT   52

 LPF -- LAYER-PROPERTY FLOW PACKAGE, VERSION 7, 5/2/2005
         INPUT READ FROM UNIT   15
 # LPF package for MODFLOW-2005 generated by Flopy 3.9.5
 CELL-BY-CELL FLOWS WILL BE SAVED ON UNIT   53
 HEAD AT CELLS THAT CONVERT TO DRY= -1.00000E+30
 No named parameters
 STORAGECOEFFICIENT OPTION:
 Read storage coefficient rather than specific storage

   LAYER FLAGS:
 LAYER       LAYTYP        LAYAVG         CHANI        LAYVKA        LAYWET
 ---------------------------------------------------------------------------
    1             1             0     1.000E+00             0             0
    2             1             0     1.000E+00             0             0
    3             1             0     1.000E+00             0             0

   INTERPRETATION OF LAYER FLAGS:
                        INTERBLOCK     HORIZONTAL    DATA IN
         LAYER TYPE   TRANSMISSIVITY   ANISOTROPY   ARRAY VKA   WETTABILITY
 LAYER      (LAYTYP)      (LAYAVG)       (CHANI)      (LAYVKA)      (LAYWET)
 ---------------------------------------------------------------------------
    1   CONVERTIBLE      HARMONIC     1.000E+00    VERTICAL K  NON-WETTABLE
    2   CONVERTIBLE      HARMONIC     1.000E+00    VERTICAL K  NON-WETTABLE
    3   CONVERTIBLE      HARMONIC     1.000E+00    VERTICAL K  NON-WETTABLE

 WETTING CAPABILITY IS NOT ACTIVE IN ANY LAYER



              HYD. COND. ALONG ROWS FOR LAYER   1
 READING ON UNIT   15 WITH FORMAT: (50E15.6)           



                VERTICAL HYD. COND. FOR LAYER   1
 READING ON UNIT   15 WITH FORMAT: (50E15.6)           



              HYD. COND. ALONG ROWS FOR LAYER   2
 READING ON UNIT   15 WITH FORMAT: (50E15.6)           



                VERTICAL HYD. COND. FOR LAYER   2
 READING ON UNIT   15 WITH FORMAT: (50E15.6)           



              HYD. COND. ALONG ROWS FOR LAYER   3
 READING ON UNIT   15 WITH FORMAT: (50E15.6)           



                VERTICAL HYD. COND. FOR LAYER   3
 READING ON UNIT   15 WITH FORMAT: (50E15.6)           

 WEL -- WELL PACKAGE, VERSION 7, 5/2/2005 INPUT READ FROM UNIT   20
 # WEL package for MODFLOW-2005 generated by Flopy 3.9.5
 No named parameters
 MAXIMUM OF      3 ACTIVE WELLS AT ONE TIME


     0 Well parameters

 RIV -- RIVER PACKAGE, VERSION 7, 5/2/2005 INPUT READ FROM UNIT   18
 # RIV package for MODFLOW-2005 generated by Flopy 3.9.5
 No named parameters
 MAXIMUM OF     49 ACTIVE RIVER REACHES AT ONE TIME
 CELL-BY-CELL FLOWS WILL BE SAVED ON UNIT   53


     0 River parameters

 EVT -- EVAPOTRANSPIRATION PACKAGE, VERSION 7, 5/2/2005
         INPUT READ FROM UNIT   22
 # EVT package for MODFLOW-2005 generated by Flopy 3.9.5
 No named parameters
 OPTION 3 -- EVAPOTRANSPIRATION FROM HIGHEST ACTIVE NODE IN EACH VERTICAL COLUMN
 CELL-BY-CELL FLOWS WILL BE SAVED ON UNIT   53


     0 Evapotranspiration parameters

 RCH -- RECHARGE PACKAGE, VERSION 7, 5/2/2005 INPUT READ FROM UNIT   19
 # RCH package for MODFLOW-2005 generated by Flopy 3.9.5
 No named parameters
 OPTION 3 -- RECHARGE TO HIGHEST ACTIVE NODE IN EACH VERTICAL COLUMN
 CELL-BY-CELL FLOWS WILL BE SAVED ON UNIT   53


     0 Recharge parameters

 PCG -- CONJUGATE-GRADIENT SOLUTION PACKAGE, VERSION 7, 5/2/2005
 # PCG package for MODFLOW-2005 generated by Flopy 3.9.5
 MAXIMUM OF   5000 CALLS OF SOLUTION ROUTINE
 MAXIMUM OF    500 INTERNAL ITERATIONS PER CALL TO SOLUTION ROUTINE
 MATRIX PRECONDITIONING TYPE :    1



                                    SOLUTION BY THE CONJUGATE-GRADIENT METHOD
                                   -------------------------------------------
                    MAXIMUM NUMBER OF CALLS TO PCG ROUTINE =     5000
                        MAXIMUM ITERATIONS PER CALL TO PCG =      500
                               MATRIX PRECONDITIONING TYPE =        1
        RELAXATION FACTOR (ONLY USED WITH PRECOND. TYPE 1) =    0.97000E+00
 PARAMETER OF POLYNOMIAL PRECOND. = 2 (2) OR IS CALCULATED :        0
                         HEAD CHANGE CRITERION FOR CLOSURE =    0.10000E-04
                     RESIDUAL CHANGE CRITERION FOR CLOSURE =    0.10000E-04
            PCG HEAD AND RESIDUAL CHANGE PRINTOUT INTERVAL =      999
     PRINTING FROM SOLVER IS LIMITED(1) OR SUPPRESSED (>1) =        3
                            STEADY-STATE DAMPING PARAMETER =    0.10000E-01
                               TRANSIENT DAMPING PARAMETER =    0.10000E-01
1
                            STRESS PERIOD NO.    1, LENGTH =   1.000000    
                            -----------------------------------------------

                              NUMBER OF TIME STEPS =     1

                               MULTIPLIER FOR DELT =     1.000

                            INITIAL TIME STEP SIZE =   1.000000    

 WELL NO.  LAYER   ROW   COL   STRESS RATE         
 --------------------------------------------------
      1      3     22     39      -1500.    
      2      1     13     15      -1500.    
      3      1     25     26       375.0    

      3 WELLS

 REACH NO.  LAYER   ROW   COL     STAGE      CONDUCTANCE     BOTTOM EL.         
 -------------------------------------------------------------------------------
      1      1     25      2       100.5           50.00           98.00    
      2      1     25      3       99.50           50.00           97.00    
      3      1     25      4       98.50           50.00           96.00    
      4      1     25      5       97.50           50.00           95.00    
      5      1     25      6       96.50           50.00           94.00    
      6      1     25      7       95.50           50.00           93.00    
      7      1     25      8       94.50           50.00           92.00    
      8      1     25      9       93.50           50.00           91.00    
      9      1     25     10       92.50           50.00           90.00    
     10      1     25     11       91.50           50.00           89.00    
     11      1     25     12       90.50           50.00           88.00    
     12      1     25     13       89.50           50.00           87.00    
     13      1     25     14       88.50           50.00           86.00    
     14      1     25     15       87.50           50.00           85.00    
     15      1     25     16       86.50           50.00           84.00    
     16      1     25     17       85.50           50.00           83.00    
     17      1     25     18       84.50           50.00           82.00    
     18      1     25     19       83.50           50.00           81.00    
     19      1     25     20       82.50           50.00           80.00    
     20      1     25     21       81.50           50.00           79.00    
     21      1     25     22       80.50           50.00           78.00    
     22      1     25     23       79.50           50.00           77.00    
     23      1     25     24       78.50           50.00           76.00    
     24      1     25     25       77.50           50.00           75.00    
     25      1     25     26       77.40           50.00           74.90    
     26      1     25     27       77.30           50.00           74.80    
     27      1     25     28       77.20           50.00           74.70    
     28      1     25     29       77.10           50.00           74.60    
     29      1     25     30       77.00           50.00           74.50    
     30      1     25     31       76.90           50.00           74.40    
     31      1     25     32       76.80           50.00           74.30    
     32      1     25     33       76.70           50.00           74.20    
     33      1     25     34       76.60           50.00           74.10    
     34      1     25     35       76.50           50.00           74.00    
     35      1     25     36       76.40           50.00           73.90    
     36      1     25     37       76.30           50.00           73.80    
     37      1     25     38       76.20           50.00           73.70    
     38      1     25     39       76.10           50.00           73.60    
     39      1     25     40       76.00           50.00           73.50    
     40      1     25     41       75.90           50.00           73.40    
     41      1     25     42       75.80           50.00           73.30    
     42      1     25     43       75.70           50.00           73.20    
     43      1     25     44       75.60           50.00           73.10    
     44      1     25     45       75.50           50.00           73.00    
     45      1     25     46       75.40           50.00           72.90    
     46      1     25     47       75.30           50.00           72.80    
     47      1     25     48       75.20           50.00           72.70    
     48      1     25     49       75.10           50.00           72.60    
     49      1     25     50       75.00           50.00           72.50    

     49 RIVER REACHES



                         ET SURFACE
 READING ON UNIT   22 WITH FORMAT: (50E15.6)           



            EVAPOTRANSPIRATION RATE
 READING ON UNIT   22 WITH FORMAT: (50E15.6)           

         EXTINCTION DEPTH =   10.0000    



                           RECHARGE
 READING ON UNIT   19 WITH FORMAT: (50E15.6)           
 
 SOLVING FOR HEAD 

 OUTPUT CONTROL FOR STRESS PERIOD    1   TIME STEP    1
    SAVE HEAD FOR ALL LAYERS
    SAVE DRAWDOWN FOR ALL LAYERS
    SAVE BUDGET
    PRINT HEAD FOR ALL LAYERS
    PRINT BUDGET
 UBDSV2 SAVING "   CONSTANT HEAD" ON UNIT  53 AT TIME STEP  1, STRESS PERIOD   1
 UBDSV1 SAVING "FLOW RIGHT FACE " ON UNIT  53 AT TIME STEP  1, STRESS PERIOD   1
 UBDSV1 SAVING "FLOW FRONT FACE " ON UNIT  53 AT TIME STEP  1, STRESS PERIOD   1
 UBDSV1 SAVING "FLOW LOWER FACE " ON UNIT  53 AT TIME STEP  1, STRESS PERIOD   1
 UBDSV4 SAVING "   RIVER LEAKAGE" ON UNIT  53 AT TIME STEP  1, STRESS PERIOD   1
 UBDSV3 SAVING "              ET" ON UNIT  53 AT TIME STEP  1, STRESS PERIOD   1
 UBDSV3 SAVING "        RECHARGE" ON UNIT  53 AT TIME STEP  1, STRESS PERIOD   1
1
              HEAD IN LAYER   1 AT END OF TIME STEP   1 IN STRESS PERIOD    1
  ---------------------------------------------------------------------------

            1           2           3           4           5           6           7           8           9          10
           11          12          13          14          15          16          17          18          19          20
           21          22          23          24          25          26          27          28          29          30
           31          32          33          34          35          36          37          38          39          40
           41          42          43          44          45          46          47          48          49          50
 ........................................................................................................................
   1  -1000.0     -1000.0     -1000.0     -1000.0     -1000.0     -1000.0     -1000.0     -1000.0     -1000.0     -1000.0    
      -1000.0     -1000.0     -1000.0     -1000.0     -1000.0     -1000.0     -1000.0     -1000.0     -1000.0     -1000.0    
      -1000.0     -1000.0     -1000.0     -1000.0     -1000.0     -1000.0     -1000.0     -1000.0     -1000.0     -1000.0    
      -1000.0     -1000.0     -1000.0     -1000.0     -1000.0     -1000.0     -1000.0     -1000.0     -1000.0     -1000.0    
      -1000.0     -1000.0     -1000.0     -1000.0     -1000.0     -1000.0     -1000.0     -1000.0     -1000.0       70.00    
   2  -1000.0     -1000.0     -1000.0     -1000.0     -1000.0       77.94       77.82       77.64       77.43       77.19    
        77.01       76.79       76.55       76.28       75.98       75.67       75.36       75.07       74.78       74.50    
        74.23       73.96       73.70       73.45       73.21       72.97       72.75       72.53       72.32       72.11    
        71.92       71.74       71.56       71.40       71.25       71.10       70.97       70.85       70.73       70.63    
        70.54       70.45       70.38       70.31       70.25       70.19       70.14       70.09       70.04       70.00    
   3  -1000.0     -1000.0     -1000.0     -1000.0       78.11       77.99       77.83       77.64       77.41       77.23    
        77.02       76.80       76.54       76.27       75.97       75.66       75.36       75.06       74.77       74.49    
        74.22       73.95       73.69       73.44       73.20       72.97       72.74       72.52       72.31       72.10    
        71.91       71.73       71.55       71.39       71.23       71.09       70.96       70.84       70.72       70.62    
        70.53       70.44       70.37       70.30       70.24       70.19       70.13       70.09       70.04       70.00    
   4  -1000.0     -1000.0     -1000.0       78.27       78.16       78.02       77.84       77.63       77.45       77.25    
        77.03       76.80       76.54       76.26       75.96       75.64       75.34       75.04       74.75       74.47    
        74.20       73.94       73.68       73.43       73.18       72.95       72.72       72.50       72.29       72.08    
        71.89       71.71       71.53       71.37       71.21       71.07       70.94       70.81       70.70       70.60    
        70.51       70.43       70.35       70.29       70.23       70.18       70.13       70.08       70.04       70.00    
   5  -1000.0     -1000.0       78.42       78.33       78.19       78.03       77.84       77.67       77.48       77.27    
        77.04       76.79       76.52       76.24       75.93       75.61       75.31       75.01       74.72       74.44    
        74.17       73.91       73.65       73.40       73.16       72.92       72.69       72.47       72.26       72.06    
        71.86       71.67       71.50       71.33       71.18       71.04       70.90       70.78       70.67       70.57    
        70.48       70.40       70.33       70.27       70.21       70.16       70.12       70.08       70.04       70.00    
   6  -1000.0       78.53       78.46       78.35       78.21       78.03       77.88       77.70       77.50       77.28    
        77.04       76.78       76.50       76.20       75.89       75.57       75.26       74.97       74.69       74.41    
        74.14       73.88       73.62       73.37       73.13       72.89       72.66       72.44       72.22       72.02    
        71.82       71.63       71.46       71.29       71.14       70.99       70.86       70.74       70.63       70.53    
        70.45       70.37       70.30       70.24       70.19       70.14       70.10       70.07       70.03       70.00    
   7  -1000.0       78.54       78.48       78.37       78.22       78.08       77.92       77.73       77.52       77.29    
        77.03       76.76       76.46       76.16       75.84       75.52       75.21       74.92       74.64       74.37    
        74.10       73.84       73.58       73.33       73.09       72.85       72.62       72.39       72.18       71.97    
        71.77       71.58       71.40       71.24       71.08       70.94       70.81       70.69       70.58       70.48    
        70.40       70.32       70.26       70.20       70.16       70.12       70.08       70.05       70.03       70.00    
   8  -1000.0       78.55       78.49       78.38       78.26       78.12       77.95       77.76       77.54       77.29    
        77.02       76.73       76.41       76.09       75.77       75.44       75.14       74.85       74.58       74.31    
        74.05       73.79       73.54       73.29       73.04       72.80       72.57       72.34       72.12       71.91    
        71.71       71.52       71.34       71.17       71.01       70.87       70.74       70.62       70.52       70.42    
        70.34       70.27       70.21       70.16       70.12       70.09       70.06       70.04       70.02       70.00    
   9  -1000.0       78.57       78.50       78.42       78.30       78.16       77.99       77.79       77.55       77.29    
        77.00       76.69       76.35       76.00       75.66       75.34       75.05       74.78       74.52       74.26    
        74.00       73.75       73.49       73.24       72.99       72.74       72.51       72.28       72.05       71.84    
        71.64       71.44       71.26       71.09       70.93       70.79       70.66       70.54       70.44       70.35    
        70.27       70.21       70.15       70.11       70.08       70.05       70.03       70.02       70.01       70.00    
  10  -1000.0       78.59       78.54       78.46       78.35       78.20       78.03       77.82       77.57       77.30    
        76.98       76.64       76.26       75.88       75.51       75.20       74.94       74.69       74.45       74.20    
        73.95       73.69       73.44       73.18       72.93       72.68       72.44       72.20       71.98       71.76    
        71.55       71.36       71.17       71.00       70.84       70.70       70.57       70.45       70.35       70.26    
        70.19       70.13       70.08       70.05       70.02       70.01       70.00       70.00       70.00       70.00    
  11  -1000.0       78.63       78.59       78.51       78.40       78.25       78.07       77.85       77.60       77.31    
        76.97       76.59       76.16       75.71       75.28       75.02       74.81       74.60       74.38       74.14    
        73.90       73.64       73.38       73.12       72.87       72.61       72.36       72.12       71.89       71.67    
        71.46       71.26       71.07       70.89       70.73       70.59       70.46       70.34       70.24       70.16    
        70.09       70.04       70.00       69.98       69.96       69.96       69.96       69.97       69.98       70.00    
  12  -1000.0       78.68       78.64       78.57       78.46       78.31       78.13       77.90       77.64       77.33    
        76.98       76.56       76.06       75.48       74.87       74.77       74.68       74.53       74.33       74.10    
        73.85       73.59       73.33       73.06       72.80       72.54       72.28       72.03       71.79       71.57    
        71.35       71.14       70.95       70.77       70.61       70.46       70.33       70.22       70.12       70.04    
        69.98       69.94       69.91       69.89       69.89       69.90       69.92       69.94       69.97       70.00    
  13  -1000.0       78.75       78.71       78.64       78.53       78.38       78.19       77.97       77.70       77.38    
        77.01       76.57       76.02       75.25       73.89       74.52       74.60       74.49       74.31       74.07    
        73.82       73.55       73.28       73.00       72.72       72.45       72.19       71.93       71.69       71.45    
        71.23       71.02       70.82       70.64       70.47       70.32       70.19       70.08       69.98       69.91    
        69.85       69.82       69.80       69.80       69.81       69.83       69.86       69.90       69.95       70.00    
  14  -1000.0       78.83       78.79       78.72       78.61       78.46       78.27       78.05       77.78       77.46    
        77.10       76.67       76.16       75.57       74.94       74.83       74.71       74.54       74.32       74.07    
        73.80       73.52       73.22       72.93       72.64       72.36       72.08       71.82       71.57       71.32    
        71.09       70.88       70.68       70.49       70.32       70.16       70.03       69.91       69.82       69.75    
        69.71       69.68       69.67       69.69       69.71       69.75       69.80       69.86       69.93       70.00    
  15  -1000.0       78.92       78.88       78.81       78.70       78.55       78.36       78.14       77.87       77.57    
        77.21       76.81       76.36       75.88       75.43       75.13       74.88       74.64       74.37       74.09    
        73.79       73.48       73.17       72.86       72.56       72.26       71.97       71.70       71.43       71.18    
        70.95       70.72       70.51       70.32       70.14       69.98       69.84       69.73       69.64       69.57    
        69.54       69.52       69.53       69.56       69.61       69.66       69.74       69.82       69.91       70.00    
  16  -1000.0       79.02       78.98       78.91       78.80       78.65       78.47       78.25       77.99       77.69    
        77.35       76.97       76.56       76.14       75.73       75.37       75.05       74.75       74.44       74.12    
        73.79       73.46       73.12       72.78       72.46       72.15       71.84       71.56       71.29       71.03    
        70.78       70.55       70.34       70.14       69.95       69.78       69.64       69.51       69.43       69.37    
        69.34       69.35       69.37       69.42       69.48       69.56       69.66       69.76       69.88       70.00    
  17  -1000.0       79.13       79.09       79.02       78.91       78.77       78.59       78.37       78.11       77.82    
        77.50       77.14       76.75       76.35       75.96       75.57       75.21       74.86       74.52       74.16    
        73.80       73.43       73.06       72.70       72.35       72.02       71.70       71.40       71.12       70.86    
        70.61       70.37       70.15       69.93       69.74       69.56       69.40       69.27       69.18       69.13    
        69.12       69.14       69.19       69.26       69.34       69.45       69.57       69.70       69.85       70.00    
  18  -1000.0       79.25       79.22       79.15       79.04       78.89       78.72       78.50       78.25       77.96    
        77.65       77.30       76.93       76.54       76.14       75.74       75.35       74.98       74.60       74.21    
        73.80       73.39       72.99       72.60       72.22       71.87       71.54       71.23       70.94       70.67    
        70.41       70.17       69.94       69.72       69.51       69.31       69.13       68.99       68.89       68.85    
        68.87       68.91       68.99       69.08       69.19       69.31       69.46       69.63       69.81       70.00    
  19  -1000.0       79.39       79.35       79.28       79.17       79.03       78.85       78.64       78.39       78.11    
        77.80       77.46       77.09       76.70       76.30       75.89       75.49       75.09       74.70       74.27    
        73.81       73.35       72.90       72.48       72.08       71.70       71.36       71.04       70.74       70.47    
        70.21       69.96       69.72       69.49       69.26       69.04       68.84       68.66       68.54       68.53    
        68.58       68.66       68.76       68.88       69.01       69.16       69.34       69.54       69.76       70.00    
  20  -1000.0       79.53       79.49       79.42       79.32       79.18       79.00       78.79       78.54       78.26    
        77.95       77.61       77.24       76.85       76.44       76.02       75.61       75.21       74.82       74.36    
        73.82       73.29       72.79       72.33       71.90       71.50       71.15       70.82       70.52       70.24    
        69.98       69.73       69.49       69.25       69.01       68.76       68.51       68.26       68.09       68.13    
        68.25       68.39       68.52       68.66       68.81       68.98       69.19       69.42       69.69       70.00    
  21  -1000.0       79.68       79.65       79.58       79.47       79.33       79.16       78.95       78.70       78.42    
        78.11       77.77       77.39       76.99       76.57       76.13       75.71       75.32       75.02       74.51    
        73.81       73.20       72.65       72.14       71.68       71.27       70.90       70.58       70.28       70.00    
        69.75       69.50       69.26       69.02       68.76       68.48       68.16       67.79       67.41       67.66    
        67.91       68.11       68.28       68.43       68.60       68.78       69.00       69.27       69.60       70.00    
  22  -1000.0       79.85       79.81       79.74       79.64       79.50       79.32       79.11       78.87       78.59    
        78.27       77.92       77.54       77.13       76.69       76.23       75.77       75.35       75.01       74.46    
        73.72       73.06       72.45       71.89       71.40       70.99       70.62       70.30       70.01       69.74    
        69.50       69.26       69.03       68.79       68.54       68.25       67.88       67.30       66.11       67.17    
        67.62       67.87       68.05       68.20       68.35       68.54       68.76       69.06       69.46       70.00    
  23  -1000.0       80.02       79.98       79.91       79.81       79.67       79.49       79.28       79.04       78.76    
        78.44       78.09       77.69       77.27       76.80       76.30       75.80       75.30       74.79       74.20    
        73.52       72.86       72.23       71.66       71.16       70.75       70.37       70.04       69.74       69.48    
        69.24       69.02       68.80       68.58       68.35       68.09       67.79       67.42       67.04       67.28    
        67.52       67.69       67.84       67.97       68.12       68.30       68.54       68.88       69.34       70.00    
  24  -1000.0       80.20       80.16       80.10       79.99       79.85       79.68       79.47       79.22       78.94    
        78.62       78.26       77.85       77.41       76.92       76.38       75.83       75.26       74.66       74.02    
        73.35       72.69       72.06       71.49       71.00       70.64       70.21       69.85       69.54       69.28    
        69.05       68.83       68.62       68.42       68.21       67.99       67.76       67.53       67.36       67.39    
        67.49       67.59       67.69       67.80       67.94       68.12       68.38       68.74       69.26       70.00    
  25  -1000.0       80.39       80.36       80.29       80.18       80.04       79.87       79.66       79.42       79.13    
        78.81       78.44       78.03       77.57       77.05       76.48       75.88       75.26       74.62       73.95    
        73.28       72.62       71.99       71.43       70.99       70.81       70.19       69.79       69.47       69.21    
        68.98       68.76       68.57       68.38       68.19       68.01       67.83       67.67       67.55       67.52    
        67.55       67.60       67.67       67.76       67.89       68.07       68.34       68.72       69.26       70.00    
  26  -1000.0       80.28       80.24       80.18       80.07       79.93       79.76       79.55       79.30       79.02    
        78.69       78.32       77.90       77.43       76.89       76.30       75.68       75.04       74.38       73.71    
        73.04       72.38       71.75       71.18       70.69       70.32       69.90       69.53       69.23       68.97    
        68.74       68.54       68.35       68.17       68.00       67.83       67.68       67.55       67.46       67.41    
        67.40       67.42       67.47       67.55       67.67       67.85       68.12       68.52       69.11       70.00    
  27  -1000.0       80.18       80.14       80.07       79.97       79.83       79.66       79.45       79.21       78.92    
        78.60       78.23       77.81       77.35       76.82       76.24       75.63       75.00       74.35       73.69    
        73.03       72.38       71.76       71.19       70.68       70.27       69.89       69.55       69.26       69.00    
        68.78       68.58       68.39       68.22       68.05       67.91       67.77       67.66       67.57       67.51    
        67.49       67.49       67.53       67.60       67.71       67.89       68.15       68.55       69.13       70.00    
  28  -1000.0       80.08       80.05       79.98       79.88       79.74       79.57       79.37       79.12       78.84    
        78.52       78.15       77.75       77.29       76.79       76.23       75.65       75.05       74.43       73.80    
        73.16       72.55       71.95       71.40       70.89       70.47       70.09       69.77       69.48       69.23    
        69.00       68.80       68.61       68.44       68.28       68.14       68.01       67.91       67.82       67.77    
        67.74       67.73       67.76       67.83       67.93       68.10       68.35       68.72       69.24       70.00    
  29  -1000.0       80.00       79.97       79.90       79.80       79.66       79.49       79.29       79.05       78.77    
        78.45       78.10       77.70       77.26       76.77       76.24       75.69       75.12       74.54       73.96    
        73.38       72.81       72.26       71.75       71.27       70.82       70.45       70.12       69.83       69.57    
        69.34       69.13       68.94       68.76       68.61       68.47       68.34       68.24       68.16       68.10    
        68.07       68.07       68.09       68.16       68.27       68.43       68.66       68.99       69.43       70.00    
  30  -1000.0       79.92       79.89       79.82       79.72       79.59       79.42       79.22       78.99       78.71    
        78.40       78.05       77.67       77.24       76.77       76.26       75.74       75.20       74.66       74.12    
        73.58       73.05       72.54       72.05       71.60       71.17       70.80       70.47       70.17       69.91    
        69.67       69.46       69.26       69.09       68.93       68.79       68.67       68.56       68.48       68.43    
        68.40       68.39       68.42       68.48       68.58       68.72       68.93       69.21       69.56       70.00    
  31  -1000.0       79.85       79.82       79.76       79.66       79.53       79.36       79.16       78.93       78.66    
        78.36       78.02       77.64       77.23       76.78       76.29       75.79       75.28       74.77       74.26    
        73.76       73.26       72.79       72.33       71.90       71.49       71.13       70.80       70.50       70.24    
        69.99       69.77       69.58       69.40       69.23       69.09       68.97       68.87       68.79       68.73    
        68.69       68.69       68.71       68.76       68.85       68.98       69.16       69.39       69.67       70.00    
  32  -1000.0       79.79       79.76       79.70       79.60       79.47       79.31       79.12       78.89       78.63    
        78.33       78.00       77.63       77.23       76.80       76.33       75.85       75.37       74.88       74.40    
        73.93       73.46       73.01       72.58       72.16       71.78       71.43       71.10       70.81       70.54    
        70.29       70.07       69.86       69.68       69.52       69.37       69.25       69.14       69.06       69.00    
        68.96       68.95       68.97       69.01       69.09       69.20       69.35       69.53       69.75       70.00    
  33  -1000.0       79.74       79.71       79.65       79.55       79.42       79.27       79.08       78.85       78.60    
        78.31       77.99       77.63       77.24       76.82       76.37       75.91       75.45       74.99       74.53    
        74.08       73.64       73.21       72.80       72.41       72.04       71.69       71.37       71.08       70.81    
        70.56       70.34       70.13       69.95       69.78       69.63       69.51       69.40       69.31       69.25    
        69.21       69.19       69.20       69.23       69.29       69.38       69.50       69.65       69.82       70.00    
  34  -1000.0       79.69       79.66       79.60       79.51       79.38       79.23       79.04       78.82       78.57    
        78.29       77.98       77.63       77.26       76.85       76.41       75.97       75.53       75.09       74.65    
        74.22       73.80       73.39       73.00       72.62       72.26       71.93       71.62       71.33       71.06    
        70.81       70.58       70.38       70.19       70.02       69.87       69.74       69.63       69.54       69.47    
        69.43       69.40       69.40       69.42       69.46       69.53       69.62       69.73       69.86       70.00    
  35  -1000.0       79.65       79.62       79.56       79.47       79.35       79.19       79.01       78.80       78.55    
        78.28       77.98       77.64       77.28       76.88       76.46       76.03       75.61       75.18       74.76    
        74.35       73.95       73.55       73.18       72.81       72.47       72.14       71.83       71.55       71.28    
        71.04       70.81       70.60       70.42       70.25       70.09       69.96       69.85       69.75       69.68    
        69.62       69.59       69.57       69.58       69.61       69.66       69.72       69.80       69.90       70.00    
  36  -1000.0       79.62       79.59       79.53       79.44       79.32       79.17       78.99       78.78       78.54    
        78.27       77.98       77.65       77.29       76.91       76.50       76.09       75.68       75.27       74.87    
        74.47       74.08       73.70       73.34       72.99       72.65       72.33       72.03       71.75       71.49    
        71.24       71.02       70.81       70.62       70.45       70.29       70.16       70.04       69.94       69.86    
        69.80       69.75       69.73       69.72       69.73       69.76       69.81       69.86       69.93       70.00    
  37  -1000.0       79.59       79.56       79.50       79.41       79.29       79.14       78.97       78.76       78.53    
        78.27       77.98       77.66       77.31       76.94       76.54       76.14       75.75       75.35       74.96    
        74.58       74.20       73.83       73.48       73.14       72.81       72.50       72.21       71.93       71.67    
        71.43       71.20       71.00       70.81       70.63       70.48       70.34       70.22       70.11       70.02    
        69.95       69.90       69.87       69.85       69.84       69.86       69.88       69.91       69.95       70.00    
  38  -1000.0       79.56       79.53       79.47       79.38       79.27       79.12       78.95       78.75       78.52    
        78.26       77.98       77.67       77.33       76.97       76.58       76.19       75.81       75.42       75.05    
        74.67       74.31       73.95       73.61       73.28       72.96       72.66       72.37       72.09       71.84    
        71.60       71.37       71.16       70.97       70.80       70.64       70.50       70.37       70.26       70.17    
        70.09       70.03       69.99       69.96       69.94       69.93       69.94       69.96       69.98       70.00    
  39  -1000.0       79.54       79.51       79.45       79.36       79.24       79.10       78.93       78.74       78.51    
        78.26       77.99       77.68       77.35       77.00       76.62       76.24       75.86       75.49       75.12    
        74.76       74.41       74.06       73.73       73.40       73.09       72.79       72.51       72.24       71.98    
        71.75       71.52       71.31       71.12       70.95       70.79       70.64       70.51       70.40       70.30    
        70.22       70.15       70.09       70.05       70.02       70.00       69.99       69.99       69.99       70.00    
  40  -1000.0       79.52       79.49       79.43       79.34       79.23       79.08       78.92       78.72       78.50    
        78.26       77.99       77.69       77.37       77.02       76.65       76.28       75.91       75.55       75.19    
        74.84       74.49       74.16       73.83       73.51       73.21       72.91       72.63       72.37       72.12    
        71.88       71.66       71.45       71.26       71.08       70.92       70.77       70.64       70.52       70.41    
        70.32       70.25       70.18       70.13       70.09       70.06       70.04       70.02       70.01       70.00    
  41  -1000.0       79.51       79.48       79.41       79.32       79.21       79.07       78.90       78.71       78.50    
        78.26       77.99       77.70       77.39       77.05       76.68       76.32       75.96       75.60       75.25    
        74.91       74.57       74.24       73.92       73.61       73.31       73.02       72.74       72.48       72.23    
        72.00       71.77       71.57       71.37       71.20       71.03       70.88       70.75       70.62       70.51    
        70.42       70.34       70.26       70.20       70.15       70.11       70.08       70.05       70.02       70.00    
  42  -1000.0       79.52       79.47       79.40       79.30       79.19       79.05       78.89       78.70       78.49    
        78.25       77.99       77.71       77.40       77.07       76.71       76.35       76.00       75.65       75.31    
        74.97       74.64       74.31       74.00       73.69       73.40       73.11       72.84       72.58       72.33    
        72.10       71.88       71.67       71.48       71.30       71.13       70.98       70.84       70.71       70.60    
        70.50       70.41       70.33       70.26       70.21       70.15       70.11       70.07       70.03       70.00    
  43  -1000.0       79.53       79.48       79.38       79.28       79.17       79.03       78.87       78.68       78.48    
        78.25       77.99       77.71       77.41       77.08       76.73       76.38       76.03       75.69       75.35    
        75.02       74.69       74.37       74.06       73.76       73.47       73.19       72.92       72.66       72.42    
        72.19       71.97       71.76       71.57       71.39       71.22       71.06       70.92       70.79       70.68    
        70.57       70.48       70.39       70.32       70.25       70.19       70.14       70.09       70.04       70.00    
  44  -1000.0       79.53       79.48       79.39       79.26       79.14       79.01       78.85       78.67       78.46    
        78.24       77.99       77.72       77.42       77.10       76.75       76.40       76.06       75.73       75.39    
        75.06       74.74       74.43       74.12       73.82       73.54       73.26       72.99       72.74       72.49    
        72.26       72.04       71.83       71.64       71.46       71.29       71.13       70.99       70.86       70.74    
        70.63       70.53       70.44       70.36       70.29       70.22       70.16       70.10       70.05       70.00    
  45  -1000.0       79.54       79.48       79.39       79.27       79.11       78.98       78.82       78.65       78.45    
        78.23       77.98       77.72       77.42       77.11       76.76       76.42       76.09       75.75       75.42    
        75.10       74.78       74.47       74.17       73.87       73.59       73.31       73.05       72.79       72.55    
        72.32       72.10       71.90       71.70       71.52       71.35       71.19       71.05       70.91       70.79    
        70.68       70.57       70.48       70.40       70.32       70.25       70.18       70.12       70.06       70.00    
  46  -1000.0     -1000.0       79.46       79.38       79.26       79.12       78.94       78.79       78.62       78.43    
        78.22       77.98       77.71       77.43       77.11       76.78       76.44       76.11       75.78       75.45    
        75.13       74.81       74.51       74.21       73.91       73.63       73.36       73.09       72.84       72.60    
        72.37       72.15       71.95       71.75       71.57       71.40       71.24       71.09       70.96       70.83    
        70.71       70.61       70.51       70.42       70.34       70.27       70.19       70.13       70.06       70.00    
  47  -1000.0     -1000.0     -1000.0       79.34       79.24       79.11       78.95       78.76       78.59       78.41    
        78.20       77.97       77.71       77.43       77.12       76.78       76.45       76.12       75.79       75.47    
        75.15       74.84       74.53       74.23       73.94       73.66       73.39       73.13       72.88       72.64    
        72.41       72.19       71.98       71.79       71.60       71.43       71.27       71.12       70.99       70.86    
        70.74       70.63       70.53       70.44       70.36       70.28       70.21       70.13       70.07       70.00    
  48  -1000.0     -1000.0     -1000.0     -1000.0       79.19       79.09       78.95       78.77       78.56       78.38    
        78.18       77.96       77.71       77.43       77.12       76.79       76.46       76.13       75.80       75.48    
        75.16       74.85       74.55       74.25       73.96       73.68       73.41       73.15       72.90       72.66    
        72.43       72.21       72.01       71.81       71.63       71.46       71.30       71.15       71.01       70.88    
        70.76       70.65       70.55       70.46       70.37       70.29       70.21       70.14       70.07       70.00    
  49  -1000.0     -1000.0     -1000.0     -1000.0     -1000.0       79.04       78.94       78.77       78.57       78.34    
        78.17       77.95       77.70       77.43       77.12       76.79       76.46       76.13       75.81       75.49    
        75.17       74.86       74.56       74.26       73.97       73.69       73.42       73.16       72.91       72.67    
        72.44       72.22       72.02       71.82       71.64       71.47       71.31       71.16       71.02       70.89    
        70.77       70.66       70.56       70.46       70.38       70.29       70.22       70.14       70.07       70.00    
  50  -1000.0     -1000.0     -1000.0     -1000.0     -1000.0     -1000.0     -1000.0     -1000.0     -1000.0     -1000.0    
      -1000.0     -1000.0     -1000.0     -1000.0     -1000.0     -1000.0     -1000.0     -1000.0     -1000.0     -1000.0    
      -1000.0     -1000.0     -1000.0     -1000.0     -1000.0     -1000.0     -1000.0     -1000.0     -1000.0     -1000.0    
      -1000.0     -1000.0     -1000.0     -1000.0     -1000.0     -1000.0     -1000.0     -1000.0     -1000.0     -1000.0    
      -1000.0     -1000.0     -1000.0     -1000.0     -1000.0     -1000.0     -1000.0     -1000.0     -1000.0       70.00    
1
              HEAD IN LAYER   2 AT END OF TIME STEP   1 IN STRESS PERIOD    1
  ---------------------------------------------------------------------------

            1           2           3           4           5           6           7           8           9          10
           11          12          13          14          15          16          17          18          19          20
           21          22          23          24          25          26          27          28          29          30
           31          32          33          34          35          36          37          38          39          40
           41          42          43          44          45          46          47          48          49          50
 ........................................................................................................................
   1  -1000.0     -1000.0     -1000.0     -1000.0     -1000.0     -1000.0     -1000.0     -1000.0     -1000.0     -1000.0    
      -1000.0     -1000.0     -1000.0     -1000.0     -1000.0     -1000.0     -1000.0     -1000.0     -1000.0     -1000.0    
      -1000.0     -1000.0     -1000.0     -1000.0     -1000.0     -1000.0     -1000.0     -1000.0     -1000.0     -1000.0    
      -1000.0     -1000.0     -1000.0     -1000.0     -1000.0     -1000.0     -1000.0     -1000.0     -1000.0     -1000.0    
      -1000.0     -1000.0     -1000.0     -1000.0     -1000.0     -1000.0     -1000.0     -1000.0     -1000.0       70.00    
   2  -1000.0     -1000.0     -1000.0     -1000.0     -1000.0     -1000.0     -1000.0       77.64       77.43       77.19    
        77.01       76.79       76.55       76.28       75.98       75.67       75.36       75.07       74.78       74.50    
        74.23       73.96       73.70       73.45       73.21       72.97       72.75       72.53       72.32       72.11    
        71.92       71.74       71.56       71.40       71.25       71.10       70.97       70.85       70.73       70.63    
        70.54       70.45       70.38       70.31       70.25       70.19       70.14       70.09       70.04       70.00    
   3  -1000.0     -1000.0     -1000.0     -1000.0     -1000.0     -1000.0       77.83       77.64       77.41       77.23    
        77.02       76.80       76.54       76.27       75.97       75.66       75.36       75.06       74.77       74.49    
        74.22       73.95       73.69       73.44       73.20       72.97       72.74       72.52       72.31       72.10    
        71.91       71.73       71.55       71.39       71.23       71.09       70.96       70.84       70.72       70.62    
        70.53       70.44       70.37       70.30       70.24       70.19       70.13       70.09       70.04       70.00    
   4  -1000.0     -1000.0     -1000.0     -1000.0     -1000.0       78.02       77.84       77.63       77.45       77.25    
        77.03       76.80       76.54       76.26       75.96       75.64       75.34       75.04       74.75       74.47    
        74.20       73.94       73.68       73.43       73.18       72.95       72.72       72.50       72.29       72.08    
        71.89       71.71       71.53       71.37       71.21       71.07       70.94       70.81       70.70       70.60    
        70.51       70.43       70.35       70.29       70.23       70.18       70.13       70.08       70.04       70.00    
   5  -1000.0     -1000.0     -1000.0     -1000.0       78.19       78.03       77.84       77.67       77.48       77.27    
        77.04       76.79       76.52       76.24       75.93       75.61       75.31       75.01       74.72       74.44    
        74.17       73.91       73.65       73.40       73.16       72.92       72.69       72.47       72.26       72.06    
        71.86       71.67       71.50       71.33       71.18       71.04       70.90       70.78       70.67       70.57    
        70.48       70.40       70.33       70.27       70.21       70.16       70.12       70.08       70.04       70.00    
   6  -1000.0     -1000.0     -1000.0       78.35       78.21       78.03       77.88       77.70       77.50       77.28    
        77.04       76.78       76.50       76.20       75.89       75.57       75.26       74.97       74.69       74.41    
        74.14       73.88       73.62       73.37       73.13       72.89       72.66       72.44       72.22       72.02    
        71.82       71.63       71.46       71.29       71.14       70.99       70.86       70.74       70.63       70.53    
        70.45       70.37       70.30       70.24       70.19       70.14       70.10       70.07       70.03       70.00    
   7  -1000.0     -1000.0       78.48       78.37       78.22       78.08       77.92       77.73       77.52       77.29    
        77.03       76.76       76.46       76.16       75.84       75.52       75.21       74.92       74.64       74.37    
        74.10       73.84       73.58       73.33       73.09       72.85       72.62       72.39       72.18       71.97    
        71.77       71.58       71.40       71.24       71.08       70.94       70.81       70.69       70.58       70.48    
        70.40       70.32       70.26       70.20       70.16       70.12       70.08       70.05       70.03       70.00    
   8  -1000.0       78.55       78.49       78.38       78.26       78.12       77.95       77.76       77.54       77.29    
        77.02       76.73       76.41       76.09       75.77       75.44       75.14       74.85       74.58       74.31    
        74.05       73.79       73.54       73.29       73.04       72.80       72.57       72.34       72.12       71.91    
        71.71       71.52       71.34       71.17       71.01       70.87       70.74       70.62       70.52       70.42    
        70.34       70.27       70.21       70.16       70.12       70.09       70.06       70.04       70.02       70.00    
   9  -1000.0       78.57       78.50       78.42       78.30       78.16       77.99       77.79       77.55       77.29    
        77.00       76.69       76.35       76.00       75.66       75.34       75.05       74.78       74.52       74.26    
        74.00       73.75       73.49       73.24       72.99       72.74       72.51       72.28       72.05       71.84    
        71.64       71.44       71.26       71.09       70.93       70.79       70.66       70.54       70.44       70.35    
        70.27       70.21       70.15       70.11       70.08       70.05       70.03       70.02       70.01       70.00    
  10  -1000.0       78.59       78.54       78.46       78.35       78.20       78.03       77.82       77.57       77.30    
        76.98       76.64       76.26       75.88       75.51       75.20       74.94       74.69       74.45       74.20    
        73.95       73.69       73.44       73.18       72.93       72.68       72.44       72.20       71.98       71.76    
        71.55       71.36       71.17       71.00       70.84       70.70       70.57       70.45       70.35       70.26    
        70.19       70.13       70.08       70.05       70.02       70.01       70.00       70.00       70.00       70.00    
  11  -1000.0       78.63       78.59       78.51       78.40       78.25       78.07       77.85       77.60       77.31    
        76.97       76.59       76.16       75.71       75.28       75.02       74.81       74.60       74.38       74.14    
        73.90       73.64       73.38       73.12       72.87       72.61       72.36       72.12       71.89       71.67    
        71.46       71.26       71.07       70.89       70.73       70.59       70.46       70.34       70.24       70.16    
        70.09       70.04       70.00       69.98       69.96       69.96       69.96       69.97       69.98       70.00    
  12  -1000.0       78.68       78.64       78.57       78.46       78.31       78.13       77.90       77.64       77.33    
        76.98       76.56       76.06       75.48       74.87       74.77       74.68       74.53       74.33       74.10    
        73.85       73.59       73.33       73.06       72.80       72.54       72.28       72.03       71.79       71.57    
        71.35       71.14       70.95       70.77       70.61       70.46       70.33       70.22       70.12       70.04    
        69.98       69.94       69.91       69.89       69.89       69.90       69.92       69.94       69.97       70.00    
  13  -1000.0       78.75       78.71       78.64       78.53       78.38       78.19       77.97       77.70       77.38    
        77.01       76.57       76.02       75.25       73.89       74.52       74.60       74.49       74.31       74.07    
        73.82       73.55       73.28       73.00       72.72       72.45       72.19       71.93       71.69       71.45    
        71.23       71.02       70.82       70.64       70.47       70.32       70.19       70.08       69.98       69.91    
        69.85       69.82       69.80       69.80       69.81       69.83       69.86       69.90       69.95       70.00    
  14  -1000.0       78.83       78.79       78.72       78.61       78.46       78.27       78.05       77.78       77.46    
        77.10       76.67       76.16       75.57       74.94       74.83       74.71       74.54       74.32       74.07    
        73.80       73.52       73.22       72.93       72.64       72.36       72.08       71.82       71.57       71.32    
        71.09       70.88       70.68       70.49       70.32       70.16       70.03       69.91       69.82       69.75    
        69.71       69.68       69.67       69.69       69.71       69.75       69.80       69.86       69.93       70.00    
  15  -1000.0       78.92       78.88       78.81       78.70       78.55       78.36       78.14       77.87       77.57    
        77.21       76.81       76.36       75.88       75.43       75.13       74.88       74.64       74.37       74.09    
        73.79       73.48       73.17       72.86       72.56       72.26       71.97       71.70       71.43       71.18    
        70.95       70.72       70.51       70.32       70.14       69.98       69.84       69.73       69.64       69.57    
        69.54       69.52       69.53       69.56       69.61       69.66       69.74       69.82       69.91       70.00    
  16  -1000.0       79.02       78.98       78.91       78.80       78.65       78.47       78.25       77.99       77.69    
        77.35       76.97       76.56       76.14       75.73       75.37       75.05       74.75       74.44       74.12    
        73.79       73.46       73.12       72.78       72.46       72.15       71.84       71.56       71.29       71.03    
        70.78       70.55       70.34       70.14       69.95       69.78       69.64       69.51       69.43       69.37    
        69.34       69.35       69.37       69.42       69.48       69.56       69.66       69.76       69.88       70.00    
  17  -1000.0       79.13       79.09       79.02       78.91       78.77       78.59       78.37       78.11       77.82    
        77.50       77.14       76.75       76.35       75.96       75.57       75.21       74.86       74.52       74.16    
        73.80       73.43       73.06       72.70       72.35       72.02       71.70       71.40       71.12       70.86    
        70.61       70.37       70.15       69.93       69.74       69.56       69.40       69.27       69.18       69.13    
        69.12       69.14       69.19       69.26       69.34       69.45       69.57       69.70       69.85       70.00    
  18  -1000.0       79.25       79.22       79.15       79.04       78.89       78.72       78.50       78.25       77.96    
        77.65       77.30       76.93       76.54       76.14       75.74       75.35       74.98       74.60       74.21    
        73.80       73.39       72.99       72.60       72.22       71.87       71.54       71.23       70.94       70.67    
        70.41       70.17       69.94       69.72       69.51       69.31       69.13       68.99       68.89       68.85    
        68.87       68.91       68.99       69.08       69.19       69.31       69.46       69.63       69.81       70.00    
  19  -1000.0       79.39       79.35       79.28       79.17       79.03       78.85       78.64       78.39       78.11    
        77.80       77.46       77.09       76.70       76.30       75.89       75.49       75.09       74.70       74.27    
        73.81       73.35       72.90       72.48       72.08       71.70       71.36       71.04       70.74       70.47    
        70.21       69.96       69.72       69.49       69.26       69.04       68.84       68.66       68.54       68.53    
        68.58       68.66       68.76       68.88       69.01       69.16       69.34       69.54       69.76       70.00    
  20  -1000.0       79.53       79.49       79.42       79.32       79.18       79.00       78.79       78.54       78.26    
        77.95       77.61       77.24       76.85       76.44       76.02       75.61       75.21       74.82       74.36    
        73.82       73.29       72.79       72.33       71.90       71.50       71.15       70.82       70.52       70.24    
        69.98       69.73       69.49       69.25       69.01       68.76       68.51       68.26       68.09       68.13    
        68.25       68.39       68.52       68.66       68.81       68.98       69.19       69.42       69.69       70.00    
  21  -1000.0       79.68       79.65       79.58       79.47       79.33       79.16       78.95       78.70       78.42    
        78.11       77.77       77.39       76.99       76.57       76.13       75.71       75.32       75.02       74.51    
        73.81       73.20       72.65       72.14       71.68       71.27       70.90       70.58       70.28       70.00    
        69.75       69.50       69.26       69.02       68.76       68.48       68.16       67.79       67.41       67.66    
        67.91       68.11       68.28       68.43       68.60       68.78       69.00       69.27       69.60       70.00    
  22  -1000.0       79.85       79.81       79.74       79.64       79.50       79.32       79.11       78.87       78.59    
        78.27       77.92       77.54       77.13       76.69       76.23       75.77       75.35       75.01       74.46    
        73.72       73.06       72.45       71.89       71.40       70.99       70.62       70.30       70.01       69.74    
        69.50       69.26       69.03       68.79       68.54       68.25       67.88       67.30       66.11       67.17    
        67.62       67.87       68.05       68.20       68.35       68.54       68.76       69.06       69.46       70.00    
  23  -1000.0       80.02       79.98       79.91       79.81       79.67       79.49       79.28       79.04       78.76    
        78.44       78.09       77.69       77.27       76.80       76.30       75.80       75.30       74.79       74.20    
        73.52       72.86       72.23       71.66       71.16       70.75       70.37       70.04       69.74       69.48    
        69.24       69.02       68.80       68.58       68.35       68.09       67.79       67.42       67.04       67.28    
        67.52       67.69       67.84       67.97       68.12       68.30       68.54       68.88       69.34       70.00    
  24  -1000.0       80.20       80.16       80.10       79.99       79.85       79.68       79.47       79.22       78.94    
        78.62       78.26       77.85       77.41       76.92       76.38       75.83       75.26       74.66       74.02    
        73.35       72.69       72.06       71.49       71.00       70.64       70.21       69.85       69.54       69.28    
        69.05       68.83       68.62       68.42       68.21       67.99       67.77       67.53       67.36       67.39    
        67.49       67.59       67.69       67.80       67.94       68.12       68.38       68.74       69.26       70.00    
  25  -1000.0       80.39       80.36       80.29       80.18       80.04       79.87       79.66       79.41       79.13    
        78.81       78.44       78.03       77.57       77.05       76.48       75.88       75.26       74.62       73.95    
        73.28       72.62       71.99       71.43       70.99       70.81       70.19       69.79       69.47       69.21    
        68.98       68.76       68.57       68.38       68.19       68.01       67.83       67.67       67.55       67.52    
        67.55       67.60       67.67       67.76       67.89       68.07       68.34       68.72       69.26       70.00    
  26  -1000.0       80.28       80.24       80.18       80.07       79.93       79.76       79.55       79.30       79.02    
        78.69       78.32       77.90       77.43       76.89       76.30       75.68       75.04       74.38       73.71    
        73.04       72.38       71.75       71.18       70.69       70.32       69.90       69.53       69.23       68.97    
        68.74       68.54       68.35       68.17       68.00       67.83       67.68       67.55       67.46       67.41    
        67.40       67.42       67.47       67.55       67.67       67.85       68.12       68.52       69.11       70.00    
  27  -1000.0       80.18       80.14       80.07       79.97       79.83       79.66       79.45       79.21       78.92    
        78.60       78.23       77.81       77.35       76.82       76.24       75.63       75.00       74.35       73.69    
        73.03       72.38       71.76       71.19       70.68       70.27       69.89       69.55       69.26       69.00    
        68.78       68.58       68.39       68.22       68.05       67.91       67.77       67.66       67.57       67.51    
        67.49       67.49       67.53       67.60       67.71       67.89       68.15       68.55       69.13       70.00    
  28  -1000.0       80.08       80.05       79.98       79.88       79.74       79.57       79.37       79.12       78.84    
        78.52       78.15       77.75       77.29       76.79       76.23       75.65       75.05       74.43       73.80    
        73.17       72.55       71.95       71.40       70.89       70.47       70.09       69.77       69.48       69.23    
        69.00       68.80       68.61       68.44       68.28       68.14       68.01       67.91       67.82       67.77    
        67.74       67.73       67.76       67.83       67.93       68.10       68.35       68.72       69.24       70.00    
  29  -1000.0       80.00       79.97       79.90       79.80       79.66       79.49       79.29       79.05       78.77    
        78.45       78.10       77.70       77.26       76.77       76.24       75.69       75.12       74.54       73.96    
        73.38       72.81       72.26       71.75       71.27       70.82       70.45       70.12       69.83       69.57    
        69.34       69.13       68.94       68.76       68.61       68.47       68.34       68.24       68.16       68.10    
        68.07       68.07       68.09       68.16       68.27       68.43       68.66       68.99       69.43       70.00    
  30  -1000.0       79.92       79.89       79.82       79.72       79.59       79.42       79.22       78.99       78.71    
        78.40       78.05       77.67       77.24       76.77       76.26       75.74       75.20       74.66       74.12    
        73.58       73.05       72.54       72.05       71.60       71.17       70.80       70.47       70.17       69.91    
        69.67       69.46       69.26       69.09       68.93       68.79       68.67       68.56       68.48       68.43    
        68.40       68.39       68.42       68.48       68.58       68.72       68.93       69.21       69.56       70.00    
  31  -1000.0       79.85       79.82       79.76       79.66       79.53       79.36       79.16       78.93       78.66    
        78.36       78.02       77.64       77.23       76.78       76.29       75.79       75.28       74.77       74.26    
        73.76       73.26       72.79       72.33       71.90       71.49       71.13       70.80       70.50       70.24    
        69.99       69.77       69.58       69.40       69.23       69.09       68.97       68.87       68.79       68.73    
        68.69       68.69       68.71       68.76       68.85       68.98       69.16       69.39       69.67       70.00    
  32  -1000.0       79.79       79.76       79.70       79.60       79.47       79.31       79.12       78.89       78.63    
        78.33       78.00       77.63       77.23       76.80       76.33       75.85       75.37       74.88       74.40    
        73.93       73.46       73.01       72.58       72.16       71.78       71.43       71.10       70.81       70.54    
        70.29       70.07       69.86       69.68       69.52       69.37       69.25       69.14       69.06       69.00    
        68.96       68.95       68.97       69.01       69.09       69.20       69.35       69.53       69.75       70.00    
  33  -1000.0       79.74       79.71       79.65       79.55       79.42       79.27       79.08       78.85       78.60    
        78.31       77.99       77.63       77.24       76.82       76.37       75.91       75.45       74.99       74.53    
        74.08       73.64       73.21       72.80       72.41       72.04       71.69       71.37       71.08       70.81    
        70.56       70.34       70.13       69.95       69.78       69.63       69.51       69.40       69.31       69.25    
        69.21       69.19       69.20       69.23       69.29       69.38       69.50       69.65       69.82       70.00    
  34  -1000.0       79.69       79.66       79.60       79.51       79.38       79.23       79.04       78.82       78.57    
        78.29       77.98       77.63       77.26       76.85       76.41       75.97       75.53       75.09       74.65    
        74.22       73.80       73.39       73.00       72.62       72.26       71.93       71.62       71.33       71.06    
        70.81       70.58       70.38       70.19       70.02       69.87       69.74       69.63       69.54       69.47    
        69.43       69.40       69.40       69.42       69.46       69.53       69.62       69.73       69.86       70.00    
  35  -1000.0       79.65       79.62       79.56       79.47       79.35       79.19       79.01       78.80       78.55    
        78.28       77.98       77.64       77.28       76.88       76.46       76.03       75.61       75.18       74.76    
        74.35       73.95       73.55       73.18       72.81       72.47       72.14       71.83       71.55       71.28    
        71.04       70.81       70.60       70.42       70.25       70.09       69.96       69.85       69.75       69.68    
        69.62       69.59       69.57       69.58       69.61       69.66       69.72       69.80       69.90       70.00    
  36  -1000.0       79.62       79.59       79.53       79.44       79.32       79.17       78.99       78.78       78.54    
        78.27       77.98       77.65       77.29       76.91       76.50       76.09       75.68       75.27       74.87    
        74.47       74.08       73.70       73.34       72.99       72.65       72.33       72.03       71.75       71.49    
        71.24       71.02       70.81       70.62       70.45       70.29       70.16       70.04       69.94       69.86    
        69.80       69.75       69.73       69.72       69.73       69.76       69.81       69.86       69.93       70.00    
  37  -1000.0       79.59       79.56       79.50       79.41       79.29       79.14       78.97       78.76       78.53    
        78.27       77.98       77.66       77.31       76.94       76.54       76.14       75.75       75.35       74.96    
        74.58       74.20       73.83       73.48       73.14       72.81       72.50       72.21       71.93       71.67    
        71.43       71.20       71.00       70.81       70.63       70.48       70.34       70.22       70.11       70.02    
        69.95       69.90       69.87       69.85       69.84       69.86       69.88       69.91       69.95       70.00    
  38  -1000.0       79.56       79.53       79.47       79.38       79.27       79.12       78.95       78.75       78.52    
        78.26       77.98       77.67       77.33       76.97       76.58       76.19       75.81       75.42       75.05    
        74.67       74.31       73.95       73.61       73.28       72.96       72.66       72.37       72.09       71.84    
        71.60       71.37       71.16       70.97       70.80       70.64       70.50       70.37       70.26       70.17    
        70.09       70.03       69.99       69.96       69.94       69.93       69.94       69.96       69.98       70.00    
  39  -1000.0       79.54       79.51       79.45       79.36       79.24       79.10       78.93       78.74       78.51    
        78.26       77.99       77.68       77.35       77.00       76.62       76.24       75.86       75.49       75.12    
        74.76       74.41       74.06       73.73       73.40       73.09       72.79       72.51       72.24       71.98    
        71.75       71.52       71.31       71.12       70.95       70.79       70.64       70.51       70.40       70.30    
        70.22       70.15       70.09       70.05       70.02       70.00       69.99       69.99       69.99       70.00    
  40  -1000.0       79.52       79.49       79.43       79.34       79.23       79.08       78.92       78.72       78.50    
        78.26       77.99       77.69       77.37       77.02       76.65       76.28       75.91       75.55       75.19    
        74.84       74.49       74.16       73.83       73.51       73.21       72.91       72.63       72.37       72.12    
        71.88       71.66       71.45       71.26       71.08       70.92       70.77       70.64       70.52       70.41    
        70.32       70.25       70.18       70.13       70.09       70.06       70.04       70.02       70.01       70.00    
  41  -1000.0       79.51       79.48       79.41       79.32       79.21       79.07       78.90       78.71       78.50    
        78.26       77.99       77.70       77.39       77.05       76.68       76.32       75.96       75.60       75.25    
        74.91       74.57       74.24       73.92       73.61       73.31       73.02       72.74       72.48       72.23    
        72.00       71.77       71.57       71.37       71.20       71.03       70.88       70.75       70.62       70.51    
        70.42       70.34       70.26       70.20       70.15       70.11       70.08       70.05       70.02       70.00    
  42  -1000.0       79.52       79.47       79.40       79.30       79.19       79.05       78.89       78.70       78.49    
        78.25       77.99       77.71       77.40       77.07       76.71       76.35       76.00       75.65       75.31    
        74.97       74.64       74.31       74.00       73.69       73.40       73.11       72.84       72.58       72.33    
        72.10       71.88       71.67       71.48       71.30       71.13       70.98       70.84       70.71       70.60    
        70.50       70.41       70.33       70.26       70.21       70.15       70.11       70.07       70.03       70.00    
  43  -1000.0       79.53       79.48       79.38       79.28       79.17       79.03       78.87       78.68       78.48    
        78.25       77.99       77.71       77.41       77.08       76.73       76.38       76.03       75.69       75.35    
        75.02       74.69       74.37       74.06       73.76       73.47       73.19       72.92       72.66       72.42    
        72.19       71.97       71.76       71.57       71.39       71.22       71.06       70.92       70.79       70.68    
        70.57       70.48       70.39       70.32       70.25       70.19       70.14       70.09       70.04       70.00    
  44  -1000.0     -1000.0       79.48       79.39       79.26       79.14       79.01       78.85       78.67       78.46    
        78.24       77.99       77.72       77.42       77.10       76.75       76.40       76.06       75.73       75.39    
        75.06       74.74       74.43       74.12       73.82       73.54       73.26       72.99       72.74       72.49    
        72.26       72.04       71.83       71.64       71.46       71.29       71.13       70.99       70.86       70.74    
        70.63       70.53       70.44       70.36       70.29       70.22       70.16       70.10       70.05       70.00    
  45  -1000.0     -1000.0     -1000.0       79.39       79.27       79.11       78.98       78.82       78.65       78.45    
        78.23       77.98       77.72       77.42       77.11       76.76       76.42       76.09       75.75       75.42    
        75.10       74.78       74.47       74.17       73.87       73.59       73.31       73.05       72.79       72.55    
        72.32       72.10       71.90       71.70       71.52       71.35       71.19       71.05       70.91       70.79    
        70.68       70.57       70.48       70.40       70.32       70.25       70.18       70.12       70.06       70.00    
  46  -1000.0     -1000.0     -1000.0     -1000.0       79.26       79.12       78.94       78.79       78.62       78.43    
        78.22       77.98       77.71       77.43       77.11       76.78       76.44       76.11       75.78       75.45    
        75.13       74.81       74.51       74.21       73.91       73.63       73.36       73.09       72.84       72.60    
        72.37       72.15       71.95       71.75       71.57       71.40       71.24       71.09       70.96       70.83    
        70.71       70.61       70.51       70.42       70.34       70.27       70.19       70.13       70.06       70.00    
  47  -1000.0     -1000.0     -1000.0     -1000.0     -1000.0       79.11       78.95       78.76       78.59       78.41    
        78.20       77.97       77.71       77.43       77.12       76.78       76.45       76.12       75.79       75.47    
        75.15       74.84       74.53       74.23       73.94       73.66       73.39       73.13       72.88       72.64    
        72.41       72.19       71.98       71.79       71.60       71.43       71.27       71.12       70.99       70.86    
        70.74       70.63       70.53       70.44       70.36       70.28       70.21       70.13       70.07       70.00    
  48  -1000.0     -1000.0     -1000.0     -1000.0     -1000.0     -1000.0       78.95       78.77       78.56       78.38    
        78.18       77.96       77.71       77.43       77.12       76.79       76.46       76.13       75.80       75.48    
        75.16       74.85       74.55       74.25       73.96       73.68       73.41       73.15       72.90       72.66    
        72.43       72.21       72.01       71.81       71.63       71.46       71.30       71.15       71.01       70.88    
        70.76       70.65       70.55       70.46       70.37       70.29       70.21       70.14       70.07       70.00    
  49  -1000.0     -1000.0     -1000.0     -1000.0     -1000.0     -1000.0     -1000.0       78.77       78.57       78.34    
        78.17       77.95       77.70       77.43       77.12       76.79       76.46       76.13       75.81       75.49    
        75.17       74.86       74.56       74.26       73.97       73.69       73.42       73.16       72.91       72.67    
        72.44       72.22       72.02       71.82       71.64       71.47       71.31       71.16       71.02       70.89    
        70.77       70.66       70.56       70.46       70.38       70.29       70.22       70.14       70.07       70.00    
  50  -1000.0     -1000.0     -1000.0     -1000.0     -1000.0     -1000.0     -1000.0     -1000.0     -1000.0     -1000.0    
      -1000.0     -1000.0     -1000.0     -1000.0     -1000.0     -1000.0     -1000.0     -1000.0     -1000.0     -1000.0    
      -1000.0     -1000.0     -1000.0     -1000.0     -1000.0     -1000.0     -1000.0     -1000.0     -1000.0     -1000.0    
      -1000.0     -1000.0     -1000.0     -1000.0     -1000.0     -1000.0     -1000.0     -1000.0     -1000.0     -1000.0    
      -1000.0     -1000.0     -1000.0     -1000.0     -1000.0     -1000.0     -1000.0     -1000.0     -1000.0       70.00    
1
              HEAD IN LAYER   3 AT END OF TIME STEP   1 IN STRESS PERIOD    1
  ---------------------------------------------------------------------------

            1           2           3           4           5           6           7           8           9          10
           11          12          13          14          15          16          17          18          19          20
           21          22          23          24          25          26          27          28          29          30
           31          32          33          34          35          36          37          38          39          40
[...]
        73.52       72.86       72.23       71.66       71.16       70.75       70.37       70.04       69.74       69.48    
        69.24       69.02       68.80       68.58       68.35       68.09       67.79       67.42       67.04       67.28    
        67.52       67.69       67.84       67.97       68.12       68.30       68.54       68.88       69.34       70.00    
  24  -1000.0       80.20       80.16       80.10       79.99       79.85       79.68       79.47       79.22       78.94    
        78.62       78.26       77.85       77.41       76.92       76.38       75.83       75.26       74.66       74.02    
        73.35       72.69       72.06       71.49       71.00       70.64       70.21       69.85       69.54       69.28    
        69.05       68.83       68.62       68.42       68.21       67.99       67.77       67.53       67.36       67.39    
        67.49       67.59       67.69       67.80       67.94       68.12       68.38       68.74       69.26       70.00    
  25  -1000.0       80.39       80.35       80.29       80.18       80.04       79.87       79.66       79.41       79.13    
        78.81       78.44       78.03       77.57       77.05       76.48       75.88       75.26       74.62       73.95    
        73.28       72.62       71.99       71.43       70.99       70.81       70.19       69.79       69.47       69.21    
        68.98       68.76       68.57       68.38       68.19       68.01       67.83       67.67       67.55       67.52    
        67.55       67.60       67.67       67.76       67.89       68.07       68.34       68.72       69.26       70.00    
  26  -1000.0       80.28       80.24       80.18       80.07       79.93       79.76       79.55       79.30       79.02    
        78.69       78.32       77.90       77.43       76.89       76.30       75.68       75.04       74.38       73.71    
        73.04       72.38       71.75       71.18       70.69       70.32       69.90       69.53       69.23       68.97    
        68.74       68.54       68.35       68.17       68.00       67.83       67.68       67.55       67.46       67.41    
        67.40       67.42       67.47       67.55       67.67       67.85       68.12       68.52       69.11       70.00    
  27  -1000.0       80.18       80.14       80.07       79.97       79.83       79.66       79.45       79.21       78.92    
        78.60       78.23       77.81       77.35       76.82       76.24       75.63       75.00       74.35       73.69    
        73.03       72.38       71.76       71.19       70.68       70.27       69.89       69.55       69.26       69.00    
        68.78       68.58       68.39       68.22       68.05       67.91       67.77       67.66       67.57       67.51    
        67.49       67.49       67.53       67.60       67.71       67.89       68.16       68.55       69.13       70.00    
  28  -1000.0       80.08       80.05       79.98       79.88       79.74       79.57       79.37       79.12       78.84    
        78.52       78.15       77.75       77.29       76.79       76.23       75.65       75.05       74.43       73.80    
        73.17       72.55       71.95       71.40       70.89       70.47       70.09       69.77       69.48       69.23    
        69.00       68.80       68.61       68.44       68.28       68.14       68.01       67.91       67.82       67.77    
        67.74       67.73       67.76       67.83       67.93       68.10       68.35       68.72       69.24       70.00    
  29  -1000.0       80.00       79.97       79.90       79.80       79.66       79.49       79.29       79.05       78.77    
        78.45       78.10       77.70       77.26       76.77       76.24       75.69       75.12       74.54       73.96    
        73.38       72.81       72.26       71.75       71.27       70.82       70.45       70.12       69.83       69.57    
        69.34       69.13       68.94       68.76       68.61       68.47       68.34       68.24       68.16       68.10    
        68.07       68.07       68.09       68.16       68.27       68.43       68.66       68.99       69.43       70.00    
  30  -1000.0       79.92       79.89       79.82       79.72       79.59       79.42       79.22       78.99       78.71    
        78.40       78.05       77.67       77.24       76.77       76.26       75.74       75.20       74.66       74.12    
        73.58       73.05       72.54       72.05       71.60       71.17       70.80       70.47       70.17       69.91    
        69.67       69.46       69.26       69.09       68.93       68.79       68.67       68.56       68.48       68.43    
        68.40       68.39       68.42       68.48       68.58       68.72       68.93       69.21       69.56       70.00    
  31  -1000.0       79.85       79.82       79.76       79.66       79.53       79.36       79.16       78.93       78.66    
        78.36       78.02       77.64       77.23       76.78       76.29       75.79       75.28       74.77       74.26    
        73.76       73.26       72.79       72.33       71.90       71.49       71.13       70.80       70.50       70.24    
        69.99       69.77       69.58       69.40       69.23       69.09       68.97       68.87       68.79       68.73    
        68.69       68.69       68.71       68.76       68.85       68.98       69.16       69.39       69.67       70.00    
  32  -1000.0       79.79       79.76       79.70       79.60       79.47       79.31       79.12       78.89       78.63    
        78.33       78.00       77.63       77.23       76.80       76.33       75.85       75.37       74.88       74.40    
        73.93       73.46       73.01       72.58       72.16       71.78       71.43       71.10       70.81       70.54    
        70.29       70.07       69.86       69.68       69.52       69.37       69.25       69.14       69.06       69.00    
        68.96       68.95       68.97       69.01       69.09       69.20       69.35       69.53       69.75       70.00    
  33  -1000.0       79.74       79.71       79.65       79.55       79.42       79.27       79.08       78.85       78.60    
        78.31       77.99       77.63       77.24       76.82       76.37       75.91       75.45       74.99       74.53    
        74.08       73.64       73.21       72.80       72.41       72.04       71.69       71.37       71.08       70.81    
        70.56       70.34       70.13       69.95       69.78       69.63       69.51       69.40       69.31       69.25    
        69.21       69.19       69.20       69.23       69.29       69.38       69.50       69.65       69.82       70.00    
  34  -1000.0       79.69       79.66       79.60       79.51       79.38       79.23       79.04       78.82       78.57    
        78.29       77.98       77.63       77.26       76.85       76.41       75.97       75.53       75.09       74.65    
        74.22       73.80       73.39       73.00       72.62       72.26       71.93       71.62       71.33       71.06    
        70.81       70.58       70.38       70.19       70.02       69.87       69.74       69.63       69.54       69.47    
        69.43       69.40       69.40       69.42       69.46       69.53       69.62       69.73       69.86       70.00    
  35  -1000.0       79.65       79.62       79.56       79.47       79.35       79.19       79.01       78.80       78.55    
        78.28       77.98       77.64       77.28       76.88       76.46       76.03       75.61       75.18       74.76    
        74.35       73.95       73.55       73.18       72.81       72.47       72.14       71.83       71.55       71.28    
        71.04       70.81       70.60       70.42       70.25       70.09       69.96       69.85       69.75       69.68    
        69.62       69.59       69.57       69.58       69.61       69.66       69.72       69.80       69.90       70.00    
  36  -1000.0       79.62       79.59       79.53       79.44       79.32       79.17       78.99       78.78       78.54    
        78.27       77.98       77.65       77.29       76.91       76.50       76.09       75.68       75.27       74.87    
        74.47       74.08       73.70       73.34       72.99       72.65       72.33       72.03       71.75       71.49    
        71.24       71.02       70.81       70.62       70.45       70.29       70.16       70.04       69.94       69.86    
        69.80       69.75       69.73       69.72       69.73       69.76       69.81       69.86       69.93       70.00    
  37  -1000.0       79.59       79.56       79.50       79.41       79.29       79.14       78.97       78.76       78.53    
        78.27       77.98       77.66       77.31       76.94       76.54       76.14       75.75       75.35       74.96    
        74.58       74.20       73.83       73.48       73.14       72.81       72.50       72.21       71.93       71.67    
        71.43       71.20       71.00       70.81       70.63       70.48       70.34       70.22       70.11       70.02    
        69.95       69.90       69.87       69.85       69.84       69.86       69.88       69.91       69.95       70.00    
  38  -1000.0       79.56       79.53       79.47       79.38       79.27       79.12       78.95       78.75       78.52    
        78.26       77.98       77.67       77.33       76.97       76.58       76.19       75.81       75.42       75.05    
        74.67       74.31       73.95       73.61       73.28       72.96       72.66       72.37       72.09       71.84    
        71.60       71.37       71.16       70.97       70.80       70.64       70.50       70.37       70.26       70.17    
        70.09       70.03       69.99       69.96       69.94       69.93       69.94       69.96       69.98       70.00    
  39  -1000.0       79.54       79.51       79.45       79.36       79.24       79.10       78.93       78.74       78.51    
        78.26       77.99       77.68       77.35       77.00       76.62       76.24       75.86       75.49       75.12    
        74.76       74.41       74.06       73.73       73.40       73.09       72.79       72.51       72.24       71.98    
        71.75       71.52       71.31       71.12       70.95       70.79       70.64       70.51       70.40       70.30    
        70.22       70.15       70.09       70.05       70.02       70.00       69.99       69.99       69.99       70.00    
  40  -1000.0       79.52       79.49       79.43       79.34       79.23       79.08       78.92       78.72       78.50    
        78.26       77.99       77.69       77.37       77.02       76.65       76.28       75.91       75.55       75.19    
        74.84       74.49       74.16       73.83       73.51       73.21       72.91       72.63       72.37       72.12    
        71.88       71.66       71.45       71.26       71.08       70.92       70.77       70.64       70.52       70.41    
        70.32       70.25       70.18       70.13       70.09       70.06       70.04       70.02       70.01       70.00    
  41  -1000.0       79.51       79.48       79.41       79.32       79.21       79.07       78.90       78.71       78.50    
        78.26       77.99       77.70       77.39       77.05       76.68       76.32       75.96       75.60       75.25    
        74.91       74.57       74.24       73.92       73.61       73.31       73.02       72.74       72.48       72.23    
        72.00       71.77       71.57       71.37       71.20       71.03       70.88       70.75       70.62       70.51    
        70.42       70.34       70.26       70.20       70.15       70.11       70.08       70.05       70.02       70.00    
  42  -1000.0     -1000.0       79.47       79.40       79.30       79.19       79.05       78.89       78.70       78.49    
        78.25       77.99       77.71       77.40       77.07       76.71       76.35       76.00       75.65       75.31    
        74.97       74.64       74.31       74.00       73.69       73.40       73.11       72.84       72.58       72.33    
        72.10       71.88       71.67       71.48       71.30       71.13       70.98       70.84       70.71       70.60    
        70.50       70.41       70.33       70.26       70.21       70.15       70.11       70.07       70.03       70.00    
  43  -1000.0     -1000.0     -1000.0       79.38       79.28       79.17       79.03       78.87       78.68       78.48    
        78.25       77.99       77.71       77.41       77.08       76.73       76.38       76.03       75.69       75.35    
        75.02       74.69       74.37       74.06       73.76       73.47       73.19       72.92       72.66       72.42    
        72.19       71.97       71.76       71.57       71.39       71.22       71.06       70.92       70.79       70.68    
        70.57       70.48       70.39       70.32       70.25       70.19       70.14       70.09       70.04       70.00    
  44  -1000.0     -1000.0     -1000.0     -1000.0       79.26       79.14       79.01       78.85       78.67       78.46    
        78.24       77.99       77.72       77.42       77.10       76.75       76.40       76.06       75.73       75.39    
        75.06       74.74       74.43       74.12       73.82       73.54       73.26       72.99       72.74       72.49    
        72.26       72.04       71.83       71.64       71.46       71.29       71.13       70.99       70.86       70.74    
        70.63       70.53       70.44       70.36       70.29       70.22       70.16       70.10       70.05       70.00    
  45  -1000.0     -1000.0     -1000.0     -1000.0     -1000.0       79.11       78.98       78.82       78.65       78.45    
        78.23       77.98       77.72       77.42       77.11       76.76       76.42       76.09       75.75       75.42    
        75.10       74.78       74.47       74.17       73.87       73.59       73.31       73.05       72.79       72.55    
        72.32       72.10       71.90       71.70       71.52       71.35       71.19       71.05       70.91       70.79    
        70.68       70.57       70.48       70.40       70.32       70.25       70.18       70.12       70.06       70.00    
  46  -1000.0     -1000.0     -1000.0     -1000.0     -1000.0     -1000.0       78.94       78.79       78.62       78.43    
        78.22       77.98       77.71       77.43       77.11       76.78       76.44       76.11       75.78       75.45    
        75.13       74.81       74.51       74.21       73.91       73.63       73.36       73.09       72.84       72.60    
        72.37       72.15       71.95       71.75       71.57       71.40       71.24       71.09       70.96       70.83    
        70.71       70.61       70.51       70.42       70.34       70.27       70.19       70.13       70.06       70.00    
  47  -1000.0     -1000.0     -1000.0     -1000.0     -1000.0     -1000.0     -1000.0       78.76       78.59       78.41    
        78.20       77.97       77.71       77.43       77.12       76.78       76.45       76.12       75.79       75.47    
        75.15       74.84       74.53       74.23       73.94       73.66       73.39       73.13       72.88       72.64    
        72.41       72.19       71.98       71.79       71.60       71.43       71.27       71.12       70.99       70.86    
        70.74       70.63       70.53       70.44       70.36       70.28       70.21       70.13       70.07       70.00    
  48  -1000.0     -1000.0     -1000.0     -1000.0     -1000.0     -1000.0     -1000.0     -1000.0       78.56       78.38    
        78.18       77.96       77.71       77.43       77.12       76.79       76.46       76.13       75.80       75.48    
        75.16       74.85       74.55       74.25       73.96       73.68       73.41       73.15       72.90       72.66    
        72.43       72.21       72.01       71.81       71.63       71.46       71.30       71.15       71.01       70.88    
        70.76       70.65       70.55       70.46       70.37       70.29       70.21       70.14       70.07       70.00    
  49  -1000.0     -1000.0     -1000.0     -1000.0     -1000.0     -1000.0     -1000.0     -1000.0     -1000.0       78.34    
        78.17       77.95       77.70       77.43       77.12       76.79       76.46       76.13       75.81       75.49    
        75.17       74.86       74.56       74.26       73.97       73.69       73.42       73.16       72.91       72.67    
        72.44       72.22       72.02       71.82       71.64       71.47       71.31       71.16       71.02       70.89    
        70.77       70.66       70.56       70.46       70.38       70.29       70.22       70.14       70.07       70.00    
  50  -1000.0     -1000.0     -1000.0     -1000.0     -1000.0     -1000.0     -1000.0     -1000.0     -1000.0     -1000.0    
      -1000.0     -1000.0     -1000.0     -1000.0     -1000.0     -1000.0     -1000.0     -1000.0     -1000.0     -1000.0    
      -1000.0     -1000.0     -1000.0     -1000.0     -1000.0     -1000.0     -1000.0     -1000.0     -1000.0     -1000.0    
      -1000.0     -1000.0     -1000.0     -1000.0     -1000.0     -1000.0     -1000.0     -1000.0     -1000.0     -1000.0    
      -1000.0     -1000.0     -1000.0     -1000.0     -1000.0     -1000.0     -1000.0     -1000.0     -1000.0       70.00    

 HEAD WILL BE SAVED ON UNIT   51 AT END OF TIME STEP    1, STRESS PERIOD    1

 DRAWDOWN WILL BE SAVED ON UNIT   52 AT END OF TIME STEP    1, STRESS PERIOD    1
1
  VOLUMETRIC BUDGET FOR ENTIRE MODEL AT END OF TIME STEP    1, STRESS PERIOD   1
  ------------------------------------------------------------------------------

     CUMULATIVE VOLUMES      L**3       RATES FOR THIS TIME STEP      L**3/T
     ------------------                 ------------------------

           IN:                                      IN:
           ---                                      ---
             STORAGE =           0.0000               STORAGE =           0.0000
       CONSTANT HEAD =        3143.9524         CONSTANT HEAD =        3143.9524
               WELLS =         375.0000                 WELLS =         375.0000
       RIVER LEAKAGE =        6000.0000         RIVER LEAKAGE =        6000.0000
                  ET =           0.0000                    ET =           0.0000
            RECHARGE =        7120.0000              RECHARGE =        7120.0000

            TOTAL IN =       16638.9531              TOTAL IN =       16638.9531

          OUT:                                     OUT:
          ----                                     ----
             STORAGE =           0.0000               STORAGE =           0.0000
       CONSTANT HEAD =         259.3604         CONSTANT HEAD =         259.3604
               WELLS =        3000.0000                 WELLS =        3000.0000
       RIVER LEAKAGE =           0.0000         RIVER LEAKAGE =           0.0000
                  ET =       13379.5801                    ET =       13379.5801
            RECHARGE =           0.0000              RECHARGE =           0.0000

           TOTAL OUT =       16638.9414             TOTAL OUT =       16638.9414

            IN - OUT =       1.1719E-02              IN - OUT =       1.1719E-02

 PERCENT DISCREPANCY =           0.00     PERCENT DISCREPANCY =           0.00






         TIME SUMMARY AT END OF TIME STEP    1 IN STRESS PERIOD    1
                    SECONDS     MINUTES      HOURS       DAYS        YEARS
                    -----------------------------------------------------------
   TIME STEP LENGTH  86400.      1440.0      24.000      1.0000     2.73785E-03
 STRESS PERIOD TIME  86400.      1440.0      24.000      1.0000     2.73785E-03
         TOTAL TIME  86400.      1440.0      24.000      1.0000     2.73785E-03
1

 Run end date and time (yyyy/mm/dd hh:mm:ss): 2026/02/25 16:26:09
 Elapsed run time: 11.930 Seconds

