                                  MODFLOW-2005     
      U.S. GEOLOGICAL SURVEY MODULAR FINITE-DIFFERENCE GROUND-WATER FLOW MODEL
                            VERSION 1.12.00 2/3/2017

 LIST FILE: static_ensemble_1211331.list
                         UNIT    2

 OPENING static_ensemble_1211331.dis
 FILE TYPE:DIS   UNIT   11   STATUS:OLD    
 FORMAT:FORMATTED              ACCESS:SEQUENTIAL          

 OPENING static_ensemble_1211331.bas
 FILE TYPE:BAS6   UNIT   13   STATUS:OLD    
 FORMAT:FORMATTED              ACCESS:SEQUENTIAL          

 OPENING static_ensemble_1211331.lpf
 FILE TYPE:LPF   UNIT   15   STATUS:OLD    
 FORMAT:FORMATTED              ACCESS:SEQUENTIAL          

 OPENING static_ensemble_1211331.evt
 FILE TYPE:EVT   UNIT   22   STATUS:OLD    
 FORMAT:FORMATTED              ACCESS:SEQUENTIAL          

 OPENING static_ensemble_1211331.rch
 FILE TYPE:RCH   UNIT   19   STATUS:OLD    
 FORMAT:FORMATTED              ACCESS:SEQUENTIAL          

 OPENING static_ensemble_1211331.riv
 FILE TYPE:RIV   UNIT   18   STATUS:OLD    
 FORMAT:FORMATTED              ACCESS:SEQUENTIAL          

 OPENING static_ensemble_1211331.wel
 FILE TYPE:WEL   UNIT   20   STATUS:OLD    
 FORMAT:FORMATTED              ACCESS:SEQUENTIAL          

 OPENING static_ensemble_1211331.oc
 FILE TYPE:OC   UNIT   14   STATUS:OLD    
 FORMAT:FORMATTED              ACCESS:SEQUENTIAL          

 OPENING static_ensemble_1211331.pcg
 FILE TYPE:PCG   UNIT   27   STATUS:OLD    
 FORMAT:FORMATTED              ACCESS:SEQUENTIAL          

 OPENING static_ensemble_1211331.cbc
 FILE TYPE:DATA(BINARY)   UNIT   53   STATUS:REPLACE
 FORMAT:UNFORMATTED            ACCESS:STREAM              

 OPENING static_ensemble_1211331.hds
 FILE TYPE:DATA(BINARY)   UNIT   51   STATUS:REPLACE
 FORMAT:UNFORMATTED            ACCESS:STREAM              

 OPENING static_ensemble_1211331.ddn
 FILE TYPE:DATA(BINARY)   UNIT   52   STATUS:REPLACE
 FORMAT:UNFORMATTED            ACCESS:STREAM              

 BAS -- BASIC PACKAGE, VERSION 7, 5/2/2005 INPUT READ FROM UNIT   13
 
 MODFLOW was compiled using mixed precision
 Precision of REAL variables:           6
 Precision of DOUBLE PRECISION variables:          15

 DISCRETIZATION INPUT DATA READ FROM UNIT   11
 # DIS package for MODFLOW-2005 generated by Flopy 3.9.5
    3 LAYERS        50 ROWS        50 COLUMNS
    1 STRESS PERIOD(S) IN SIMULATION
 MODEL TIME UNIT IS DAYS
 MODEL LENGTH UNIT IS METERS
  Confining bed flag for each layer:
   0   0   0

                     DELR =   1000.00    

                     DELC =   1000.00    



           TOP ELEVATION OF LAYER 1
 READING ON UNIT   11 WITH FORMAT: (50E15.6)           



             MODEL LAYER BOTTOM EL. FOR LAYER   1
 READING ON UNIT   11 WITH FORMAT: (50E15.6)           



             MODEL LAYER BOTTOM EL. FOR LAYER   2
 READING ON UNIT   11 WITH FORMAT: (50E15.6)           



             MODEL LAYER BOTTOM EL. FOR LAYER   3
 READING ON UNIT   11 WITH FORMAT: (50E15.6)           


 STRESS PERIOD     LENGTH       TIME STEPS     MULTIPLIER FOR DELT    SS FLAG
 ----------------------------------------------------------------------------
        1         1.000000          1                    1.000         SS

 STEADY-STATE SIMULATION



 
 # BAS6 package for MODFLOW-2005 generated by Flopy 3.9.5                        
 THE FREE FORMAT OPTION HAS BEEN SELECTED



                     BOUNDARY ARRAY FOR LAYER   1
 READING ON UNIT   13 WITH FORMAT: (50I10)             



                     BOUNDARY ARRAY FOR LAYER   2
 READING ON UNIT   13 WITH FORMAT: (50I10)             



                     BOUNDARY ARRAY FOR LAYER   3
 READING ON UNIT   13 WITH FORMAT: (50I10)             

 AQUIFER HEAD WILL BE SET TO  -999.99     AT ALL NO-FLOW NODES (IBOUND=0).



                       INITIAL HEAD FOR LAYER   1
 READING ON UNIT   13 WITH FORMAT: (50E15.6)           



                       INITIAL HEAD FOR LAYER   2
 READING ON UNIT   13 WITH FORMAT: (50E15.6)           



                       INITIAL HEAD FOR LAYER   3
 READING ON UNIT   13 WITH FORMAT: (50E15.6)           
 # OC package for MODFLOW-2005 generated by Flopy 3.9.5

 OUTPUT CONTROL IS SPECIFIED ONLY AT TIME STEPS FOR WHICH OUTPUT IS DESIRED
 COMPACT CELL-BY-CELL BUDGET FILES WILL BE WRITTEN
 AUXILIARY DATA WILL BE SAVED IN CELL-BY-CELL BUDGET FILES
 HEAD PRINT FORMAT CODE IS   0    DRAWDOWN PRINT FORMAT CODE IS   0
 HEADS WILL BE SAVED ON UNIT   51    DRAWDOWNS WILL BE SAVED ON UNIT   52

 LPF -- LAYER-PROPERTY FLOW PACKAGE, VERSION 7, 5/2/2005
         INPUT READ FROM UNIT   15
 # LPF package for MODFLOW-2005 generated by Flopy 3.9.5
 CELL-BY-CELL FLOWS WILL BE SAVED ON UNIT   53
 HEAD AT CELLS THAT CONVERT TO DRY= -1.00000E+30
 No named parameters
 STORAGECOEFFICIENT OPTION:
 Read storage coefficient rather than specific storage

   LAYER FLAGS:
 LAYER       LAYTYP        LAYAVG         CHANI        LAYVKA        LAYWET
 ---------------------------------------------------------------------------
    1             1             0     1.000E+00             0             0
    2             1             0     1.000E+00             0             0
    3             1             0     1.000E+00             0             0

   INTERPRETATION OF LAYER FLAGS:
                        INTERBLOCK     HORIZONTAL    DATA IN
         LAYER TYPE   TRANSMISSIVITY   ANISOTROPY   ARRAY VKA   WETTABILITY
 LAYER      (LAYTYP)      (LAYAVG)       (CHANI)      (LAYVKA)      (LAYWET)
 ---------------------------------------------------------------------------
    1   CONVERTIBLE      HARMONIC     1.000E+00    VERTICAL K  NON-WETTABLE
    2   CONVERTIBLE      HARMONIC     1.000E+00    VERTICAL K  NON-WETTABLE
    3   CONVERTIBLE      HARMONIC     1.000E+00    VERTICAL K  NON-WETTABLE

 WETTING CAPABILITY IS NOT ACTIVE IN ANY LAYER



              HYD. COND. ALONG ROWS FOR LAYER   1
 READING ON UNIT   15 WITH FORMAT: (50E15.6)           



                VERTICAL HYD. COND. FOR LAYER   1
 READING ON UNIT   15 WITH FORMAT: (50E15.6)           



              HYD. COND. ALONG ROWS FOR LAYER   2
 READING ON UNIT   15 WITH FORMAT: (50E15.6)           



                VERTICAL HYD. COND. FOR LAYER   2
 READING ON UNIT   15 WITH FORMAT: (50E15.6)           



              HYD. COND. ALONG ROWS FOR LAYER   3
 READING ON UNIT   15 WITH FORMAT: (50E15.6)           



                VERTICAL HYD. COND. FOR LAYER   3
 READING ON UNIT   15 WITH FORMAT: (50E15.6)           

 WEL -- WELL PACKAGE, VERSION 7, 5/2/2005 INPUT READ FROM UNIT   20
 # WEL package for MODFLOW-2005 generated by Flopy 3.9.5
 No named parameters
 MAXIMUM OF      3 ACTIVE WELLS AT ONE TIME


     0 Well parameters

 RIV -- RIVER PACKAGE, VERSION 7, 5/2/2005 INPUT READ FROM UNIT   18
 # RIV package for MODFLOW-2005 generated by Flopy 3.9.5
 No named parameters
 MAXIMUM OF     49 ACTIVE RIVER REACHES AT ONE TIME
 CELL-BY-CELL FLOWS WILL BE SAVED ON UNIT   53


     0 River parameters

 EVT -- EVAPOTRANSPIRATION PACKAGE, VERSION 7, 5/2/2005
         INPUT READ FROM UNIT   22
 # EVT package for MODFLOW-2005 generated by Flopy 3.9.5
 No named parameters
 OPTION 3 -- EVAPOTRANSPIRATION FROM HIGHEST ACTIVE NODE IN EACH VERTICAL COLUMN
 CELL-BY-CELL FLOWS WILL BE SAVED ON UNIT   53


     0 Evapotranspiration parameters

 RCH -- RECHARGE PACKAGE, VERSION 7, 5/2/2005 INPUT READ FROM UNIT   19
 # RCH package for MODFLOW-2005 generated by Flopy 3.9.5
 No named parameters
 OPTION 3 -- RECHARGE TO HIGHEST ACTIVE NODE IN EACH VERTICAL COLUMN
 CELL-BY-CELL FLOWS WILL BE SAVED ON UNIT   53


     0 Recharge parameters

 PCG -- CONJUGATE-GRADIENT SOLUTION PACKAGE, VERSION 7, 5/2/2005
 # PCG package for MODFLOW-2005 generated by Flopy 3.9.5
 MAXIMUM OF   5000 CALLS OF SOLUTION ROUTINE
 MAXIMUM OF    500 INTERNAL ITERATIONS PER CALL TO SOLUTION ROUTINE
 MATRIX PRECONDITIONING TYPE :    1



                                    SOLUTION BY THE CONJUGATE-GRADIENT METHOD
                                   -------------------------------------------
                    MAXIMUM NUMBER OF CALLS TO PCG ROUTINE =     5000
                        MAXIMUM ITERATIONS PER CALL TO PCG =      500
                               MATRIX PRECONDITIONING TYPE =        1
        RELAXATION FACTOR (ONLY USED WITH PRECOND. TYPE 1) =    0.97000E+00
 PARAMETER OF POLYNOMIAL PRECOND. = 2 (2) OR IS CALCULATED :        0
                         HEAD CHANGE CRITERION FOR CLOSURE =    0.10000E-04
                     RESIDUAL CHANGE CRITERION FOR CLOSURE =    0.10000E-04
            PCG HEAD AND RESIDUAL CHANGE PRINTOUT INTERVAL =      999
     PRINTING FROM SOLVER IS LIMITED(1) OR SUPPRESSED (>1) =        3
                            STEADY-STATE DAMPING PARAMETER =    0.10000E-01
                               TRANSIENT DAMPING PARAMETER =    0.10000E-01
1
                            STRESS PERIOD NO.    1, LENGTH =   1.000000    
                            -----------------------------------------------

                              NUMBER OF TIME STEPS =     1

                               MULTIPLIER FOR DELT =     1.000

                            INITIAL TIME STEP SIZE =   1.000000    

 WELL NO.  LAYER   ROW   COL   STRESS RATE         
 --------------------------------------------------
      1      3     22     39      -1500.    
      2      1     13     15      -4500.    
      3      1     25     26       375.0    

      3 WELLS

 REACH NO.  LAYER   ROW   COL     STAGE      CONDUCTANCE     BOTTOM EL.         
 -------------------------------------------------------------------------------
      1      1     25      2       100.5           50.00           98.00    
      2      1     25      3       99.50           50.00           97.00    
      3      1     25      4       98.50           50.00           96.00    
      4      1     25      5       97.50           50.00           95.00    
      5      1     25      6       96.50           50.00           94.00    
      6      1     25      7       95.50           50.00           93.00    
      7      1     25      8       94.50           50.00           92.00    
      8      1     25      9       93.50           50.00           91.00    
      9      1     25     10       92.50           50.00           90.00    
     10      1     25     11       91.50           50.00           89.00    
     11      1     25     12       90.50           50.00           88.00    
     12      1     25     13       89.50           50.00           87.00    
     13      1     25     14       88.50           50.00           86.00    
     14      1     25     15       87.50           50.00           85.00    
     15      1     25     16       86.50           50.00           84.00    
     16      1     25     17       85.50           50.00           83.00    
     17      1     25     18       84.50           50.00           82.00    
     18      1     25     19       83.50           50.00           81.00    
     19      1     25     20       82.50           50.00           80.00    
     20      1     25     21       81.50           50.00           79.00    
     21      1     25     22       80.50           50.00           78.00    
     22      1     25     23       79.50           50.00           77.00    
     23      1     25     24       78.50           50.00           76.00    
     24      1     25     25       77.50           50.00           75.00    
     25      1     25     26       77.40           50.00           74.90    
     26      1     25     27       77.30           50.00           74.80    
     27      1     25     28       77.20           50.00           74.70    
     28      1     25     29       77.10           50.00           74.60    
     29      1     25     30       77.00           50.00           74.50    
     30      1     25     31       76.90           50.00           74.40    
     31      1     25     32       76.80           50.00           74.30    
     32      1     25     33       76.70           50.00           74.20    
     33      1     25     34       76.60           50.00           74.10    
     34      1     25     35       76.50           50.00           74.00    
     35      1     25     36       76.40           50.00           73.90    
     36      1     25     37       76.30           50.00           73.80    
     37      1     25     38       76.20           50.00           73.70    
     38      1     25     39       76.10           50.00           73.60    
     39      1     25     40       76.00           50.00           73.50    
     40      1     25     41       75.90           50.00           73.40    
     41      1     25     42       75.80           50.00           73.30    
     42      1     25     43       75.70           50.00           73.20    
     43      1     25     44       75.60           50.00           73.10    
     44      1     25     45       75.50           50.00           73.00    
     45      1     25     46       75.40           50.00           72.90    
     46      1     25     47       75.30           50.00           72.80    
     47      1     25     48       75.20           50.00           72.70    
     48      1     25     49       75.10           50.00           72.60    
     49      1     25     50       75.00           50.00           72.50    

     49 RIVER REACHES



                         ET SURFACE
 READING ON UNIT   22 WITH FORMAT: (50E15.6)           



            EVAPOTRANSPIRATION RATE
 READING ON UNIT   22 WITH FORMAT: (50E15.6)           

         EXTINCTION DEPTH =   10.0000    



                           RECHARGE
 READING ON UNIT   19 WITH FORMAT: (50E15.6)           
 
 SOLVING FOR HEAD 

 OUTPUT CONTROL FOR STRESS PERIOD    1   TIME STEP    1
    SAVE HEAD FOR ALL LAYERS
    SAVE DRAWDOWN FOR ALL LAYERS
    SAVE BUDGET
    PRINT HEAD FOR ALL LAYERS
    PRINT BUDGET
 UBDSV2 SAVING "   CONSTANT HEAD" ON UNIT  53 AT TIME STEP  1, STRESS PERIOD   1
 UBDSV1 SAVING "FLOW RIGHT FACE " ON UNIT  53 AT TIME STEP  1, STRESS PERIOD   1
 UBDSV1 SAVING "FLOW FRONT FACE " ON UNIT  53 AT TIME STEP  1, STRESS PERIOD   1
 UBDSV1 SAVING "FLOW LOWER FACE " ON UNIT  53 AT TIME STEP  1, STRESS PERIOD   1
 UBDSV4 SAVING "   RIVER LEAKAGE" ON UNIT  53 AT TIME STEP  1, STRESS PERIOD   1
 UBDSV3 SAVING "              ET" ON UNIT  53 AT TIME STEP  1, STRESS PERIOD   1
 UBDSV3 SAVING "        RECHARGE" ON UNIT  53 AT TIME STEP  1, STRESS PERIOD   1
1
              HEAD IN LAYER   1 AT END OF TIME STEP   1 IN STRESS PERIOD    1
  ---------------------------------------------------------------------------

            1           2           3           4           5           6           7           8           9          10
           11          12          13          14          15          16          17          18          19          20
           21          22          23          24          25          26          27          28          29          30
           31          32          33          34          35          36          37          38          39          40
           41          42          43          44          45          46          47          48          49          50
 ........................................................................................................................
   1  -1000.0     -1000.0     -1000.0     -1000.0     -1000.0     -1000.0     -1000.0     -1000.0     -1000.0     -1000.0    
      -1000.0     -1000.0     -1000.0     -1000.0     -1000.0     -1000.0     -1000.0     -1000.0     -1000.0     -1000.0    
      -1000.0     -1000.0     -1000.0     -1000.0     -1000.0     -1000.0     -1000.0     -1000.0     -1000.0     -1000.0    
      -1000.0     -1000.0     -1000.0     -1000.0     -1000.0     -1000.0     -1000.0     -1000.0     -1000.0     -1000.0    
      -1000.0     -1000.0     -1000.0     -1000.0     -1000.0     -1000.0     -1000.0     -1000.0     -1000.0       70.00    
   2  -1000.0     -1000.0     -1000.0     -1000.0     -1000.0       73.73       73.61       73.41       73.18       72.93    
        72.76       72.56       72.34       72.11       71.87       71.63       71.41       71.22       71.06       70.91    
        70.78       70.66       70.56       70.46       70.37       70.29       70.21       70.14       70.08       70.02    
        69.96       69.91       69.87       69.83       69.79       69.77       69.75       69.73       69.72       69.72    
        69.73       69.74       69.76       69.78       69.81       69.84       69.88       69.92       69.96       70.00    
   3  -1000.0     -1000.0     -1000.0     -1000.0       73.92       73.79       73.61       73.40       73.15       72.96    
        72.76       72.55       72.32       72.08       71.84       71.60       71.39       71.20       71.04       70.89    
        70.76       70.65       70.55       70.45       70.37       70.28       70.21       70.14       70.07       70.01    
        69.96       69.91       69.86       69.82       69.79       69.76       69.74       69.72       69.72       69.72    
        69.72       69.74       69.75       69.78       69.81       69.84       69.88       69.92       69.96       70.00    
   4  -1000.0     -1000.0     -1000.0       74.12       73.99       73.82       73.61       73.37       73.18       72.97    
        72.75       72.52       72.28       72.04       71.79       71.55       71.34       71.15       71.00       70.86    
        70.73       70.63       70.53       70.44       70.35       70.27       70.20       70.13       70.06       70.00    
        69.95       69.90       69.85       69.81       69.77       69.75       69.73       69.71       69.70       69.70    
        69.71       69.72       69.74       69.77       69.80       69.83       69.87       69.91       69.96       70.00    
   5  -1000.0     -1000.0       74.31       74.19       74.03       73.83       73.60       73.41       73.19       72.97    
        72.73       72.47       72.22       71.96       71.71       71.47       71.26       71.08       70.93       70.81    
        70.69       70.59       70.50       70.41       70.33       70.26       70.19       70.12       70.05       69.99    
        69.93       69.88       69.83       69.79       69.75       69.73       69.70       69.69       69.68       69.68    
        69.69       69.71       69.73       69.75       69.79       69.82       69.86       69.91       69.95       70.00    
   6  -1000.0       74.45       74.36       74.23       74.05       73.83       73.64       73.43       73.20       72.95    
        72.68       72.40       72.12       71.85       71.59       71.35       71.15       70.98       70.85       70.74    
        70.64       70.55       70.47       70.39       70.31       70.24       70.17       70.10       70.03       69.97    
        69.91       69.86       69.81       69.77       69.73       69.70       69.68       69.66       69.66       69.66    
        69.67       69.68       69.70       69.73       69.77       69.81       69.85       69.90       69.95       70.00    
   7  -1000.0       74.47       74.39       74.26       74.07       73.89       73.69       73.46       73.20       72.92    
        72.62       72.31       72.00       71.70       71.42       71.18       71.00       70.86       70.75       70.65    
        70.57       70.50       70.43       70.36       70.29       70.22       70.15       70.08       70.01       69.95    
        69.89       69.83       69.78       69.73       69.70       69.67       69.64       69.63       69.62       69.62    
        69.63       69.65       69.68       69.71       69.75       69.79       69.84       69.89       69.94       70.00    
   8  -1000.0       74.51       74.43       74.28       74.13       73.95       73.73       73.48       73.20       72.88    
        72.54       72.18       71.83       71.49       71.20       70.96       70.80       70.70       70.62       70.56    
        70.51       70.45       70.39       70.33       70.26       70.19       70.12       70.05       69.99       69.92    
        69.86       69.80       69.74       69.70       69.66       69.62       69.60       69.58       69.58       69.58    
        69.59       69.61       69.64       69.68       69.72       69.77       69.82       69.88       69.94       70.00    
   9  -1000.0       74.55       74.47       74.36       74.20       74.01       73.78       73.51       73.19       72.84    
        72.45       72.03       71.60       71.20       70.88       70.66       70.56       70.51       70.48       70.46    
        70.44       70.40       70.35       70.30       70.24       70.17       70.10       70.03       69.96       69.89    
        69.82       69.76       69.70       69.65       69.61       69.57       69.55       69.53       69.52       69.53    
        69.54       69.56       69.60       69.64       69.68       69.74       69.80       69.86       69.93       70.00    
  10  -1000.0       74.62       74.55       74.44       74.28       74.08       73.84       73.55       73.20       72.81    
        72.36       71.86       71.32       70.81       70.42       70.26       70.25       70.29       70.34       70.37    
        70.38       70.36       70.33       70.28       70.22       70.15       70.08       70.01       69.93       69.86    
        69.78       69.72       69.66       69.60       69.55       69.51       69.49       69.47       69.46       69.46    
        69.48       69.51       69.54       69.59       69.64       69.71       69.77       69.85       69.92       70.00    
  11  -1000.0       74.70       74.64       74.53       74.38       74.17       73.92       73.61       73.24       72.80    
        72.28       71.68       70.99       70.27       69.70       69.70       69.88       70.07       70.21       70.30    
        70.34       70.34       70.32       70.27       70.21       70.14       70.06       69.98       69.90       69.82    
        69.74       69.67       69.60       69.54       69.49       69.44       69.41       69.39       69.39       69.39    
        69.41       69.44       69.48       69.53       69.60       69.67       69.74       69.83       69.91       70.00    
  12  -1000.0       74.81       74.75       74.65       74.49       74.29       74.02       73.70       73.31       72.84    
        72.26       71.55       70.66       69.53       68.36       68.94       69.52       69.91       70.14       70.27    
        70.34       70.35       70.32       70.28       70.21       70.13       70.05       69.96       69.87       69.78    
        69.70       69.61       69.54       69.47       69.41       69.36       69.33       69.31       69.30       69.30    
        69.32       69.36       69.41       69.47       69.54       69.62       69.71       69.80       69.90       70.00    
  13  -1000.0       74.94       74.89       74.79       74.63       74.43       74.16       73.84       73.44       72.95    
        72.35       71.57       70.50       68.78       65.11       68.17       69.34       69.89       70.17       70.32    
        70.38       70.39       70.36       70.30       70.22       70.14       70.04       69.94       69.84       69.74    
        69.64       69.55       69.47       69.39       69.33       69.27       69.23       69.20       69.20       69.20    
        69.23       69.27       69.32       69.39       69.47       69.57       69.67       69.77       69.89       70.00    
  14  -1000.0       75.10       75.05       74.95       74.80       74.60       74.34       74.01       73.62       73.15    
        72.57       71.85       70.95       69.81       68.63       69.20       69.76       70.13       70.34       70.45    
        70.48       70.47       70.42       70.34       70.25       70.14       70.03       69.92       69.81       69.70    
        69.59       69.49       69.39       69.30       69.23       69.17       69.12       69.09       69.08       69.08    
        69.11       69.16       69.22       69.30       69.40       69.50       69.62       69.74       69.87       70.00    
  15  -1000.0       75.28       75.24       75.14       74.99       74.79       74.54       74.23       73.86       73.41    
        72.89       72.27       71.57       70.83       70.24       70.21       70.37       70.52       70.61       70.65    
        70.64       70.58       70.50       70.40       70.28       70.16       70.03       69.90       69.77       69.65    
        69.53       69.41       69.30       69.21       69.12       69.04       68.99       68.95       68.94       68.95    
        68.98       69.03       69.11       69.20       69.31       69.43       69.56       69.70       69.85       70.00    
  16  -1000.0       75.49       75.44       75.35       75.21       75.02       74.78       74.48       74.14       73.73    
        73.26       72.75       72.19       71.65       71.23       71.03       70.97       70.96       70.95       70.90    
        70.83       70.73       70.61       70.47       70.33       70.18       70.03       69.88       69.73       69.59    
        69.46       69.33       69.21       69.10       68.99       68.91       68.84       68.79       68.77       68.78    
        68.82       68.89       68.98       69.08       69.21       69.35       69.50       69.66       69.83       70.00    
  17  -1000.0       75.71       75.67       75.58       75.44       75.26       75.04       74.76       74.44       74.07    
        73.66       73.22       72.76       72.33       71.96       71.69       71.53       71.41       71.30       71.19    
        71.05       70.89       70.73       70.55       70.37       70.19       70.02       69.85       69.69       69.53    
        69.38       69.24       69.10       68.97       68.86       68.75       68.66       68.60       68.58       68.59    
        68.64       68.72       68.83       68.95       69.09       69.25       69.42       69.60       69.80       70.00    
  18  -1000.0       75.95       75.91       75.82       75.70       75.53       75.31       75.06       74.76       74.43    
        74.06       73.67       73.27       72.89       72.55       72.25       72.03       71.84       71.67       71.49    
        71.28       71.07       70.85       70.63       70.42       70.21       70.01       69.82       69.64       69.47    
        69.30       69.14       68.99       68.84       68.70       68.57       68.46       68.38       68.34       68.36    
        68.43       68.53       68.66       68.80       68.96       69.13       69.33       69.54       69.76       70.00    
  19  -1000.0       76.21       76.17       76.09       75.97       75.81       75.61       75.37       75.09       74.79    
        74.45       74.10       73.74       73.39       73.05       72.74       72.48       72.26       72.04       71.80    
        71.53       71.25       70.97       70.71       70.45       70.22       69.99       69.78       69.58       69.39    
        69.21       69.04       68.87       68.70       68.54       68.38       68.23       68.11       68.04       68.08    
        68.18       68.32       68.47       68.63       68.81       69.00       69.22       69.46       69.72       70.00    
  20  -1000.0       76.47       76.44       76.36       76.25       76.10       75.91       75.69       75.43       75.14    
        74.83       74.51       74.17       73.83       73.50       73.18       72.90       72.66       72.44       72.15    
        71.78       71.43       71.09       70.77       70.48       70.21       69.96       69.73       69.51       69.31    
        69.11       68.93       68.75       68.56       68.38       68.18       67.97       67.77       67.65       67.74    
        67.90       68.08       68.26       68.44       68.64       68.85       69.08       69.35       69.66       70.00    
  21  -1000.0       76.75       76.72       76.65       76.54       76.39       76.22       76.01       75.77       75.50    
        75.20       74.89       74.56       74.23       73.90       73.57       73.28       73.05       72.91       72.57    
        72.03       71.58       71.18       70.81       70.48       70.18       69.90       69.66       69.42       69.21    
        69.01       68.82       68.62       68.43       68.22       67.98       67.70       67.36       67.03       67.31    
        67.61       67.85       68.06       68.25       68.45       68.66       68.91       69.21       69.57       70.00    
  22  -1000.0       77.04       77.01       76.94       76.84       76.70       76.53       76.33       76.10       75.84    
        75.56       75.26       74.94       74.61       74.27       73.92       73.60       73.33       73.15       72.77    
        72.18       71.68       71.23       70.81       70.44       70.12       69.83       69.56       69.32       69.10    
        68.90       68.70       68.50       68.30       68.09       67.83       67.49       66.94       65.81       66.88    
        67.36       67.65       67.86       68.05       68.24       68.44       68.70       69.02       69.44       70.00    
  23  -1000.0       77.34       77.31       77.24       77.14       77.01       76.85       76.66       76.43       76.18    
        75.91       75.61       75.30       74.96       74.61       74.24       73.88       73.53       73.19       72.75    
        72.24       71.73       71.24       70.78       70.37       70.04       69.73       69.45       69.20       68.98    
        68.77       68.58       68.39       68.20       67.99       67.76       67.47       67.13       66.78       67.05    
        67.32       67.52       67.69       67.85       68.02       68.23       68.49       68.84       69.32       70.00    
  24  -1000.0       77.64       77.61       77.55       77.45       77.32       77.17       76.98       76.77       76.52    
        76.25       75.96       75.64       75.30       74.93       74.54       74.14       73.73       73.30       72.82    
        72.29       71.75       71.23       70.75       70.35       70.05       69.68       69.37       69.10       68.87    
        68.67       68.48       68.29       68.11       67.93       67.73       67.52       67.31       67.16       67.21    
        67.33       67.45       67.57       67.71       67.86       68.06       68.34       68.71       69.24       70.00    
  25  -1000.0       77.95       77.92       77.86       77.76       77.64       77.49       77.31       77.10       76.86    
        76.59       76.30       75.98       75.63       75.26       74.84       74.41       73.95       73.46       72.93    
        72.38       71.82       71.28       70.80       70.43       70.32       69.74       69.38       69.10       68.87    
        68.66       68.47       68.30       68.13       67.96       67.79       67.63       67.49       67.39       67.38    
        67.42       67.49       67.57       67.68       67.83       68.03       68.30       68.70       69.25       70.00    
  26  -1000.0       77.94       77.91       77.85       77.76       77.64       77.49       77.31       77.11       76.87    
        76.61       76.32       75.99       75.64       75.25       74.82       74.36       73.87       73.35       72.80    
        72.23       71.66       71.11       70.61       70.19       69.87       69.49       69.16       68.89       68.66    
        68.46       68.28       68.11       67.94       67.79       67.64       67.51       67.39       67.31       67.28    
        67.28       67.32       67.38       67.48       67.61       67.80       68.09       68.49       69.09       70.00    
  27  -1000.0       77.94       77.91       77.85       77.76       77.64       77.50       77.32       77.12       76.88    
        76.62       76.33       76.01       75.65       75.26       74.83       74.37       73.89       73.37       72.83    
        72.27       71.71       71.16       70.65       70.20       69.84       69.50       69.20       68.94       68.72    
        68.51       68.33       68.16       68.01       67.86       67.73       67.61       67.51       67.44       67.39    
        67.38       67.40       67.45       67.53       67.66       67.85       68.12       68.52       69.11       70.00    
  28  -1000.0       77.94       77.91       77.85       77.76       77.65       77.50       77.33       77.13       76.90    
        76.64       76.35       76.03       75.67       75.28       74.85       74.41       73.94       73.45       72.94    
        72.41       71.87       71.35       70.85       70.41       70.03       69.70       69.42       69.16       68.94    
        68.73       68.55       68.38       68.23       68.09       67.96       67.85       67.76       67.69       67.65    
        67.63       67.64       67.68       67.76       67.88       68.06       68.32       68.69       69.23       70.00    
  29  -1000.0       77.94       77.91       77.85       77.77       77.65       77.51       77.34       77.14       76.92    
        76.66       76.37       76.05       75.70       75.32       74.89       74.46       74.01       73.54       73.06    
        72.58       72.09       71.62       71.16       70.75       70.36       70.03       69.74       69.48       69.26    
        69.05       68.86       68.69       68.54       68.40       68.28       68.17       68.08       68.02       67.98    
        67.96       67.97       68.01       68.09       68.21       68.38       68.63       68.97       69.42       70.00    
  30  -1000.0       77.94       77.92       77.86       77.78       77.66       77.52       77.36       77.16       76.94    
        76.68       76.40       76.08       75.74       75.36       74.94       74.52       74.09       73.64       73.19    
        72.74       72.29       71.85       71.44       71.04       70.67       70.35       70.06       69.80       69.57    
        69.36       69.17       69.00       68.84       68.70       68.58       68.48       68.39       68.33       68.29    
        68.27       68.28       68.33       68.40       68.51       68.68       68.89       69.18       69.55       70.00    
  31  -1000.0       77.95       77.92       77.87       77.79       77.68       77.54       77.37       77.18       76.96    
        76.71       76.43       76.12       75.78       75.41       75.00       74.59       74.17       73.75       73.33    
        72.90       72.48       72.07       71.68       71.31       70.96       70.64       70.36       70.10       69.86    
        69.65       69.46       69.28       69.12       68.98       68.86       68.76       68.68       68.61       68.57    
        68.56       68.57       68.61       68.68       68.78       68.93       69.12       69.36       69.66       70.00    
  32  -1000.0       77.96       77.93       77.88       77.80       77.69       77.55       77.39       77.20       76.98    
        76.74       76.46       76.16       75.82       75.46       75.07       74.67       74.26       73.86       73.45    
        73.05       72.65       72.27       71.90       71.54       71.21       70.91       70.63       70.37       70.13    
        69.92       69.72       69.55       69.39       69.25       69.13       69.02       68.94       68.88       68.84    
        68.82       68.82       68.86       68.92       69.01       69.14       69.30       69.51       69.74       70.00    
  33  -1000.0       77.97       77.94       77.89       77.81       77.70       77.57       77.41       77.22       77.01    
        76.77       76.50       76.20       75.87       75.51       75.13       74.74       74.35       73.96       73.58    
        73.19       72.82       72.45       72.10       71.76       71.44       71.14       70.87       70.61       70.38    
        70.16       69.97       69.79       69.63       69.49       69.37       69.27       69.18       69.12       69.07    
        69.05       69.05       69.08       69.13       69.21       69.32       69.45       69.61       69.80       70.00    
  34  -1000.0       77.98       77.96       77.90       77.82       77.72       77.59       77.43       77.25       77.03    
        76.80       76.53       76.24       75.92       75.57       75.19       74.82       74.44       74.07       73.69    
        73.33       72.97       72.61       72.28       71.95       71.65       71.36       71.09       70.84       70.60    
        70.39       70.20       70.02       69.86       69.72       69.59       69.49       69.40       69.33       69.29    
        69.26       69.25       69.27       69.31       69.37       69.46       69.57       69.70       69.85       70.00    
  35  -1000.0       78.00       77.97       77.92       77.84       77.74       77.61       77.45       77.27       77.06    
        76.83       76.57       76.28       75.97       75.63       75.26       74.89       74.53       74.16       73.80    
        73.45       73.10       72.77       72.44       72.13       71.83       71.55       71.28       71.04       70.81    
        70.60       70.40       70.23       70.07       69.92       69.80       69.69       69.60       69.53       69.48    
        69.45       69.43       69.44       69.47       69.51       69.58       69.67       69.77       69.88       70.00    
  36  -1000.0       78.01       77.98       77.93       77.85       77.75       77.62       77.47       77.29       77.09    
        76.86       76.60       76.32       76.01       75.68       75.32       74.96       74.61       74.25       73.91    
        73.56       73.23       72.90       72.59       72.29       72.00       71.72       71.46       71.22       70.99    
        70.79       70.59       70.42       70.26       70.11       69.99       69.88       69.79       69.71       69.65    
        69.61       69.59       69.59       69.60       69.64       69.68       69.75       69.82       69.91       70.00    
  37  -1000.0       78.02       78.00       77.94       77.87       77.77       77.64       77.49       77.31       77.11    
        76.89       76.64       76.36       76.06       75.73       75.38       75.03       74.68       74.34       74.00    
        73.67       73.34       73.03       72.72       72.43       72.15       71.88       71.62       71.39       71.16    
        70.96       70.76       70.59       70.43       70.28       70.16       70.04       69.95       69.87       69.81    
        69.76       69.73       69.72       69.72       69.74       69.77       69.82       69.87       69.93       70.00    
  38  -1000.0       78.03       78.01       77.96       77.88       77.78       77.66       77.51       77.33       77.14    
        76.91       76.67       76.40       76.10       75.78       75.43       75.09       74.75       74.42       74.09    
        73.77       73.45       73.14       72.84       72.56       72.28       72.02       71.77       71.54       71.32    
        71.11       70.92       70.74       70.58       70.44       70.31       70.20       70.10       70.01       69.95    
        69.89       69.86       69.83       69.83       69.83       69.85       69.88       69.91       69.95       70.00    
  39  -1000.0       78.05       78.02       77.97       77.90       77.80       77.67       77.52       77.35       77.16    
        76.94       76.70       76.43       76.14       75.82       75.49       75.15       74.82       74.49       74.17    
        73.85       73.54       73.24       72.95       72.67       72.40       72.15       71.90       71.67       71.45    
        71.25       71.06       70.88       70.72       70.58       70.45       70.33       70.23       70.14       70.07    
        70.01       69.97       69.93       69.92       69.91       69.91       69.93       69.95       69.97       70.00    
  40  -1000.0       78.06       78.03       77.98       77.91       77.81       77.68       77.54       77.37       77.18    
        76.96       76.72       76.46       76.17       75.87       75.53       75.20       74.88       74.56       74.24    
        73.93       73.63       73.33       73.05       72.77       72.51       72.26       72.02       71.79       71.57    
        71.37       71.18       71.01       70.85       70.70       70.57       70.45       70.34       70.25       70.18    
        70.11       70.06       70.02       69.99       69.98       69.97       69.97       69.98       69.99       70.00    
  41  -1000.0       78.07       78.05       77.99       77.92       77.82       77.69       77.55       77.38       77.19    
        76.98       76.75       76.49       76.21       75.90       75.57       75.25       74.93       74.61       74.30    
        74.00       73.70       73.42       73.14       72.87       72.61       72.36       72.12       71.89       71.68    
        71.48       71.29       71.12       70.96       70.81       70.68       70.55       70.45       70.35       70.27    
        70.20       70.14       70.10       70.06       70.04       70.02       70.01       70.00       70.00       70.00    
  42  -1000.0       78.11       78.06       78.00       77.92       77.82       77.70       77.56       77.39       77.20    
        77.00       76.76       76.51       76.23       75.93       75.61       75.29       74.98       74.67       74.36    
        74.06       73.77       73.49       73.21       72.95       72.69       72.44       72.21       71.99       71.77    
        71.58       71.39       71.21       71.05       70.90       70.77       70.65       70.54       70.44       70.35    
        70.28       70.21       70.16       70.12       70.08       70.06       70.04       70.02       70.01       70.00    
  43  -1000.0       78.14       78.09       78.00       77.92       77.82       77.70       77.56       77.40       77.21    
        77.01       76.78       76.53       76.26       75.96       75.64       75.33       75.02       74.71       74.41    
        74.12       73.83       73.55       73.28       73.01       72.76       72.52       72.29       72.07       71.86    
        71.66       71.47       71.30       71.14       70.99       70.85       70.72       70.61       70.51       70.42    
        70.34       70.28       70.22       70.17       70.13       70.09       70.06       70.04       70.02       70.00    
  44  -1000.0       78.17       78.12       78.04       77.92       77.82       77.70       77.56       77.40       77.22    
        77.01       76.79       76.54       76.28       75.98       75.67       75.36       75.05       74.75       74.45    
        74.16       73.88       73.60       73.33       73.07       72.82       72.58       72.35       72.13       71.92    
        71.73       71.54       71.37       71.21       71.06       70.92       70.79       70.68       70.57       70.48    
        70.40       70.33       70.26       70.21       70.16       70.12       70.09       70.06       70.03       70.00    
  45  -1000.0       78.18       78.14       78.05       77.95       77.80       77.69       77.55       77.39       77.21    
        77.02       76.80       76.56       76.29       76.00       75.69       75.38       75.08       74.78       74.49    
        74.20       73.92       73.64       73.38       73.12       72.87       72.63       72.41       72.19       71.98    
        71.78       71.60       71.43       71.26       71.11       70.97       70.85       70.73       70.62       70.53    
        70.44       70.37       70.30       70.24       70.19       70.14       70.10       70.07       70.03       70.00    
  46  -1000.0     -1000.0       78.13       78.06       77.96       77.83       77.67       77.53       77.38       77.21    
        77.01       76.80       76.56       76.30       76.02       75.71       75.40       75.10       74.81       74.51    
        74.23       73.95       73.68       73.42       73.16       72.91       72.68       72.45       72.23       72.02    
        71.83       71.64       71.47       71.31       71.16       71.02       70.89       70.77       70.66       70.57    
        70.48       70.40       70.33       70.27       70.21       70.16       70.12       70.08       70.04       70.00    
  47  -1000.0     -1000.0     -1000.0       78.03       77.95       77.83       77.69       77.51       77.36       77.19    
        77.01       76.80       76.57       76.31       76.03       75.72       75.42       75.12       74.82       74.54    
        74.25       73.97       73.70       73.44       73.19       72.94       72.71       72.48       72.26       72.06    
        71.86       71.68       71.50       71.34       71.19       71.05       70.92       70.80       70.69       70.60    
        70.51       70.43       70.35       70.29       70.23       70.18       70.13       70.08       70.04       70.00    
  48  -1000.0     -1000.0     -1000.0     -1000.0       77.92       77.82       77.69       77.53       77.33       77.17    
        77.00       76.80       76.57       76.31       76.03       75.73       75.43       75.13       74.84       74.55    
        74.27       73.99       73.72       73.46       73.21       72.96       72.73       72.50       72.29       72.08    
        71.89       71.70       71.53       71.36       71.21       71.07       70.94       70.82       70.71       70.61    
        70.52       70.44       70.37       70.30       70.24       70.19       70.14       70.09       70.04       70.00    
  49  -1000.0     -1000.0     -1000.0     -1000.0     -1000.0       77.79       77.70       77.54       77.36       77.15    
        76.99       76.79       76.57       76.31       76.03       75.73       75.43       75.14       74.84       74.56    
        74.27       74.00       73.73       73.47       73.22       72.97       72.74       72.51       72.30       72.09    
        71.90       71.71       71.54       71.38       71.22       71.08       70.95       70.83       70.72       70.62    
        70.53       70.45       70.37       70.31       70.25       70.19       70.14       70.09       70.04       70.00    
  50  -1000.0     -1000.0     -1000.0     -1000.0     -1000.0     -1000.0     -1000.0     -1000.0     -1000.0     -1000.0    
      -1000.0     -1000.0     -1000.0     -1000.0     -1000.0     -1000.0     -1000.0     -1000.0     -1000.0     -1000.0    
      -1000.0     -1000.0     -1000.0     -1000.0     -1000.0     -1000.0     -1000.0     -1000.0     -1000.0     -1000.0    
      -1000.0     -1000.0     -1000.0     -1000.0     -1000.0     -1000.0     -1000.0     -1000.0     -1000.0     -1000.0    
      -1000.0     -1000.0     -1000.0     -1000.0     -1000.0     -1000.0     -1000.0     -1000.0     -1000.0       70.00    
1
              HEAD IN LAYER   2 AT END OF TIME STEP   1 IN STRESS PERIOD    1
  ---------------------------------------------------------------------------

            1           2           3           4           5           6           7           8           9          10
           11          12          13          14          15          16          17          18          19          20
           21          22          23          24          25          26          27          28          29          30
           31          32          33          34          35          36          37          38          39          40
           41          42          43          44          45          46          47          48          49          50
 ........................................................................................................................
   1  -1000.0     -1000.0     -1000.0     -1000.0     -1000.0     -1000.0     -1000.0     -1000.0     -1000.0     -1000.0    
      -1000.0     -1000.0     -1000.0     -1000.0     -1000.0     -1000.0     -1000.0     -1000.0     -1000.0     -1000.0    
      -1000.0     -1000.0     -1000.0     -1000.0     -1000.0     -1000.0     -1000.0     -1000.0     -1000.0     -1000.0    
      -1000.0     -1000.0     -1000.0     -1000.0     -1000.0     -1000.0     -1000.0     -1000.0     -1000.0     -1000.0    
      -1000.0     -1000.0     -1000.0     -1000.0     -1000.0     -1000.0     -1000.0     -1000.0     -1000.0       70.00    
   2  -1000.0     -1000.0     -1000.0     -1000.0     -1000.0     -1000.0     -1000.0       73.41       73.18       72.93    
        72.76       72.56       72.34       72.11       71.87       71.63       71.41       71.22       71.06       70.91    
        70.78       70.66       70.56       70.46       70.37       70.29       70.21       70.14       70.08       70.02    
        69.96       69.91       69.87       69.83       69.79       69.77       69.75       69.73       69.72       69.72    
        69.73       69.74       69.76       69.78       69.81       69.84       69.88       69.92       69.96       70.00    
   3  -1000.0     -1000.0     -1000.0     -1000.0     -1000.0     -1000.0       73.61       73.40       73.15       72.96    
        72.76       72.55       72.32       72.08       71.84       71.60       71.39       71.20       71.04       70.89    
        70.76       70.65       70.55       70.45       70.37       70.28       70.21       70.14       70.07       70.01    
        69.96       69.91       69.86       69.82       69.79       69.76       69.74       69.72       69.72       69.72    
        69.72       69.74       69.75       69.78       69.81       69.84       69.88       69.92       69.96       70.00    
   4  -1000.0     -1000.0     -1000.0     -1000.0     -1000.0       73.82       73.61       73.37       73.18       72.97    
        72.75       72.52       72.28       72.04       71.79       71.55       71.34       71.15       71.00       70.86    
        70.73       70.63       70.53       70.44       70.35       70.27       70.20       70.13       70.06       70.00    
        69.95       69.90       69.85       69.81       69.77       69.75       69.73       69.71       69.70       69.70    
        69.71       69.72       69.74       69.77       69.80       69.83       69.87       69.91       69.96       70.00    
   5  -1000.0     -1000.0     -1000.0     -1000.0       74.03       73.83       73.60       73.41       73.19       72.97    
        72.73       72.47       72.22       71.96       71.71       71.47       71.26       71.08       70.93       70.81    
        70.69       70.59       70.50       70.41       70.33       70.26       70.19       70.12       70.05       69.99    
        69.93       69.88       69.83       69.79       69.75       69.73       69.70       69.69       69.68       69.68    
        69.69       69.71       69.73       69.75       69.79       69.82       69.86       69.91       69.95       70.00    
   6  -1000.0     -1000.0     -1000.0       74.23       74.05       73.83       73.64       73.43       73.20       72.95    
        72.68       72.40       72.12       71.85       71.59       71.35       71.15       70.98       70.85       70.74    
        70.64       70.55       70.47       70.39       70.31       70.24       70.17       70.10       70.03       69.97    
        69.91       69.86       69.81       69.77       69.73       69.70       69.68       69.66       69.66       69.66    
        69.67       69.68       69.70       69.73       69.77       69.81       69.85       69.90       69.95       70.00    
   7  -1000.0     -1000.0       74.39       74.26       74.07       73.89       73.69       73.46       73.20       72.92    
        72.62       72.31       72.00       71.70       71.42       71.18       71.00       70.86       70.75       70.65    
        70.57       70.50       70.43       70.36       70.29       70.22       70.15       70.08       70.01       69.95    
        69.89       69.83       69.78       69.73       69.70       69.67       69.64       69.63       69.62       69.62    
        69.63       69.65       69.68       69.71       69.75       69.79       69.84       69.89       69.94       70.00    
   8  -1000.0       74.51       74.43       74.28       74.13       73.95       73.73       73.48       73.20       72.88    
        72.54       72.18       71.83       71.49       71.20       70.96       70.80       70.70       70.62       70.56    
        70.51       70.45       70.39       70.33       70.26       70.19       70.12       70.05       69.99       69.92    
        69.86       69.80       69.74       69.70       69.66       69.62       69.60       69.58       69.58       69.58    
        69.59       69.61       69.64       69.68       69.72       69.77       69.82       69.88       69.94       70.00    
   9  -1000.0       74.55       74.47       74.36       74.20       74.01       73.78       73.51       73.19       72.84    
        72.45       72.03       71.60       71.20       70.88       70.66       70.56       70.51       70.48       70.46    
        70.44       70.40       70.35       70.30       70.24       70.17       70.10       70.03       69.96       69.89    
        69.82       69.76       69.70       69.65       69.61       69.57       69.55       69.53       69.52       69.53    
        69.54       69.56       69.60       69.64       69.68       69.74       69.80       69.86       69.93       70.00    
  10  -1000.0       74.62       74.55       74.44       74.28       74.08       73.84       73.55       73.20       72.81    
        72.36       71.86       71.32       70.81       70.42       70.26       70.25       70.29       70.34       70.37    
        70.38       70.36       70.33       70.28       70.22       70.15       70.08       70.01       69.93       69.86    
        69.78       69.72       69.66       69.60       69.55       69.51       69.49       69.47       69.46       69.46    
        69.48       69.51       69.54       69.59       69.64       69.71       69.77       69.85       69.92       70.00    
  11  -1000.0       74.70       74.64       74.53       74.38       74.17       73.92       73.61       73.24       72.80    
        72.28       71.68       70.99       70.27       69.70       69.70       69.88       70.07       70.21       70.30    
        70.34       70.34       70.32       70.27       70.21       70.14       70.06       69.98       69.90       69.82    
        69.74       69.67       69.60       69.54       69.49       69.44       69.41       69.39       69.39       69.39    
        69.41       69.44       69.48       69.53       69.60       69.67       69.74       69.83       69.91       70.00    
  12  -1000.0       74.81       74.75       74.65       74.49       74.29       74.02       73.70       73.31       72.84    
        72.26       71.55       70.66       69.53       68.36       68.94       69.52       69.91       70.14       70.27    
        70.34       70.35       70.32       70.28       70.21       70.13       70.05       69.96       69.87       69.78    
        69.70       69.61       69.54       69.47       69.41       69.36       69.33       69.31       69.30       69.30    
        69.32       69.36       69.41       69.47       69.54       69.62       69.71       69.80       69.90       70.00    
  13  -1000.0       74.94       74.89       74.79       74.63       74.43       74.16       73.84       73.44       72.95    
        72.35       71.57       70.50       68.78       65.11       68.17       69.34       69.89       70.17       70.32    
        70.38       70.39       70.36       70.30       70.22       70.14       70.04       69.94       69.84       69.74    
        69.64       69.55       69.47       69.39       69.33       69.27       69.23       69.20       69.20       69.20    
        69.23       69.27       69.32       69.39       69.47       69.57       69.67       69.77       69.89       70.00    
  14  -1000.0       75.10       75.05       74.95       74.80       74.60       74.34       74.01       73.62       73.15    
        72.57       71.85       70.95       69.81       68.63       69.20       69.76       70.13       70.34       70.45    
        70.48       70.47       70.42       70.34       70.25       70.14       70.03       69.92       69.81       69.70    
        69.59       69.49       69.39       69.30       69.23       69.17       69.12       69.09       69.08       69.08    
        69.11       69.16       69.22       69.30       69.40       69.50       69.62       69.74       69.87       70.00    
  15  -1000.0       75.28       75.24       75.14       74.99       74.79       74.54       74.23       73.86       73.41    
        72.89       72.27       71.57       70.83       70.24       70.21       70.37       70.52       70.61       70.65    
        70.64       70.58       70.50       70.40       70.28       70.16       70.03       69.90       69.77       69.65    
        69.53       69.41       69.30       69.21       69.12       69.04       68.99       68.95       68.94       68.95    
        68.98       69.03       69.11       69.20       69.31       69.43       69.56       69.70       69.85       70.00    
  16  -1000.0       75.49       75.44       75.35       75.21       75.02       74.78       74.48       74.14       73.73    
        73.26       72.75       72.19       71.65       71.23       71.03       70.97       70.96       70.95       70.90    
        70.83       70.73       70.61       70.47       70.33       70.18       70.03       69.88       69.73       69.59    
        69.46       69.33       69.21       69.10       68.99       68.91       68.84       68.79       68.77       68.78    
        68.82       68.89       68.98       69.08       69.21       69.34       69.50       69.66       69.83       70.00    
  17  -1000.0       75.71       75.67       75.58       75.44       75.26       75.04       74.76       74.44       74.07    
        73.66       73.22       72.76       72.33       71.96       71.69       71.53       71.41       71.30       71.19    
        71.05       70.89       70.73       70.55       70.37       70.19       70.02       69.85       69.69       69.53    
        69.38       69.24       69.10       68.97       68.86       68.75       68.66       68.60       68.58       68.59    
        68.64       68.72       68.83       68.95       69.09       69.25       69.42       69.60       69.80       70.00    
  18  -1000.0       75.95       75.91       75.82       75.70       75.53       75.31       75.06       74.76       74.43    
        74.06       73.67       73.27       72.89       72.55       72.25       72.03       71.84       71.67       71.49    
        71.28       71.07       70.85       70.63       70.42       70.21       70.01       69.82       69.64       69.47    
        69.30       69.14       68.99       68.84       68.70       68.57       68.46       68.38       68.34       68.36    
        68.43       68.53       68.66       68.80       68.96       69.13       69.33       69.54       69.76       70.00    
  19  -1000.0       76.21       76.17       76.09       75.97       75.81       75.61       75.37       75.09       74.79    
        74.45       74.10       73.74       73.39       73.05       72.74       72.48       72.26       72.04       71.80    
        71.53       71.25       70.97       70.71       70.45       70.22       69.99       69.78       69.58       69.39    
        69.21       69.04       68.87       68.70       68.54       68.38       68.23       68.11       68.04       68.08    
        68.18       68.32       68.47       68.63       68.81       69.00       69.22       69.46       69.72       70.00    
  20  -1000.0       76.47       76.44       76.36       76.25       76.10       75.91       75.69       75.43       75.14    
        74.83       74.51       74.17       73.83       73.50       73.18       72.90       72.66       72.44       72.15    
        71.78       71.43       71.09       70.77       70.48       70.21       69.96       69.73       69.51       69.31    
        69.11       68.93       68.75       68.56       68.38       68.18       67.97       67.77       67.65       67.74    
        67.90       68.08       68.26       68.44       68.64       68.85       69.08       69.35       69.66       70.00    
  21  -1000.0       76.75       76.72       76.65       76.54       76.39       76.22       76.01       75.77       75.50    
        75.20       74.89       74.56       74.23       73.90       73.57       73.28       73.05       72.91       72.57    
        72.03       71.58       71.18       70.81       70.48       70.18       69.90       69.66       69.42       69.21    
        69.01       68.82       68.62       68.43       68.22       67.98       67.70       67.36       67.03       67.31    
        67.61       67.85       68.06       68.25       68.45       68.66       68.91       69.21       69.57       70.00    
  22  -1000.0       77.04       77.01       76.94       76.84       76.70       76.53       76.33       76.10       75.84    
        75.56       75.26       74.94       74.61       74.27       73.92       73.60       73.33       73.15       72.77    
        72.18       71.68       71.23       70.81       70.44       70.12       69.83       69.56       69.32       69.10    
        68.90       68.70       68.50       68.30       68.09       67.83       67.49       66.94       65.79       66.88    
        67.36       67.65       67.86       68.05       68.24       68.44       68.70       69.02       69.44       70.00    
  23  -1000.0       77.34       77.31       77.24       77.14       77.01       76.85       76.66       76.43       76.18    
        75.91       75.61       75.30       74.96       74.61       74.24       73.88       73.53       73.19       72.75    
        72.24       71.73       71.24       70.78       70.37       70.04       69.73       69.45       69.20       68.98    
        68.77       68.58       68.39       68.20       67.99       67.76       67.47       67.13       66.78       67.05    
        67.32       67.52       67.69       67.85       68.02       68.23       68.49       68.84       69.32       70.00    
  24  -1000.0       77.64       77.61       77.55       77.45       77.32       77.17       76.98       76.77       76.52    
        76.25       75.96       75.64       75.30       74.93       74.54       74.14       73.73       73.30       72.82    
        72.29       71.75       71.23       70.75       70.35       70.05       69.68       69.37       69.10       68.87    
        68.67       68.48       68.30       68.12       67.93       67.73       67.52       67.31       67.16       67.21    
        67.33       67.45       67.58       67.71       67.86       68.07       68.34       68.72       69.24       70.00    
  25  -1000.0       77.95       77.92       77.86       77.76       77.64       77.49       77.31       77.10       76.86    
        76.59       76.30       75.98       75.63       75.25       74.84       74.41       73.95       73.46       72.93    
        72.38       71.82       71.28       70.80       70.43       70.31       69.74       69.38       69.10       68.86    
        68.66       68.47       68.30       68.13       67.96       67.79       67.63       67.48       67.39       67.38    
        67.42       67.49       67.57       67.68       67.83       68.02       68.30       68.70       69.25       70.00    
  26  -1000.0       77.94       77.91       77.85       77.76       77.64       77.49       77.31       77.11       76.87    
        76.61       76.32       75.99       75.64       75.25       74.82       74.36       73.87       73.35       72.80    
        72.23       71.66       71.12       70.61       70.19       69.87       69.49       69.17       68.90       68.67    
        68.46       68.28       68.11       67.95       67.79       67.65       67.51       67.39       67.31       67.28    
        67.29       67.32       67.39       67.48       67.61       67.81       68.09       68.50       69.10       70.00    
  27  -1000.0       77.94       77.91       77.85       77.76       77.64       77.50       77.32       77.12       76.88    
        76.62       76.33       76.01       75.65       75.26       74.83       74.37       73.89       73.37       72.83    
        72.27       71.71       71.16       70.65       70.21       69.84       69.50       69.20       68.95       68.72    
        68.52       68.33       68.17       68.01       67.87       67.73       67.61       67.51       67.44       67.40    
        67.39       67.41       67.45       67.53       67.66       67.85       68.12       68.53       69.12       70.00    
  28  -1000.0       77.94       77.91       77.85       77.76       77.65       77.50       77.33       77.13       76.90    
        76.64       76.35       76.03       75.67       75.28       74.85       74.41       73.94       73.45       72.94    
        72.41       71.87       71.35       70.86       70.41       70.04       69.71       69.42       69.16       68.94    
        68.73       68.55       68.38       68.23       68.09       67.97       67.85       67.76       67.69       67.65    
        67.63       67.64       67.68       67.76       67.88       68.06       68.32       68.70       69.23       70.00    
  29  -1000.0       77.94       77.91       77.85       77.77       77.65       77.51       77.34       77.14       76.92    
        76.66       76.37       76.05       75.70       75.32       74.89       74.46       74.01       73.54       73.06    
        72.58       72.09       71.62       71.16       70.75       70.36       70.03       69.74       69.48       69.26    
        69.05       68.86       68.69       68.54       68.40       68.28       68.17       68.08       68.02       67.98    
        67.96       67.97       68.01       68.09       68.21       68.38       68.63       68.97       69.42       70.00    
  30  -1000.0       77.94       77.92       77.86       77.78       77.66       77.52       77.36       77.16       76.94    
        76.68       76.40       76.08       75.74       75.36       74.94       74.52       74.09       73.64       73.19    
        72.74       72.29       71.85       71.44       71.04       70.67       70.35       70.06       69.80       69.57    
        69.36       69.17       69.00       68.84       68.70       68.58       68.48       68.39       68.33       68.29    
        68.27       68.28       68.33       68.40       68.51       68.68       68.90       69.18       69.55       70.00    
  31  -1000.0       77.95       77.92       77.87       77.79       77.68       77.54       77.37       77.18       76.96    
        76.71       76.43       76.12       75.78       75.41       75.00       74.59       74.17       73.75       73.33    
        72.90       72.48       72.07       71.68       71.31       70.96       70.64       70.36       70.10       69.86    
        69.65       69.46       69.28       69.12       68.98       68.86       68.76       68.68       68.61       68.57    
        68.56       68.57       68.61       68.68       68.78       68.93       69.12       69.36       69.66       70.00    
  32  -1000.0       77.96       77.93       77.88       77.80       77.69       77.55       77.39       77.20       76.98    
        76.74       76.46       76.16       75.82       75.46       75.07       74.67       74.26       73.86       73.45    
        73.05       72.65       72.27       71.90       71.54       71.21       70.91       70.63       70.37       70.13    
        69.92       69.72       69.55       69.39       69.25       69.13       69.02       68.94       68.88       68.84    
        68.82       68.82       68.86       68.92       69.01       69.14       69.30       69.51       69.74       70.00    
  33  -1000.0       77.97       77.94       77.89       77.81       77.70       77.57       77.41       77.22       77.01    
        76.77       76.50       76.20       75.87       75.51       75.13       74.74       74.35       73.96       73.58    
        73.19       72.82       72.45       72.10       71.76       71.44       71.14       70.87       70.61       70.38    
        70.16       69.97       69.79       69.63       69.49       69.37       69.27       69.18       69.12       69.07    
        69.05       69.05       69.08       69.13       69.21       69.32       69.45       69.61       69.80       70.00    
  34  -1000.0       77.98       77.96       77.90       77.82       77.72       77.59       77.43       77.25       77.03    
        76.80       76.53       76.24       75.92       75.57       75.19       74.82       74.44       74.07       73.69    
        73.33       72.97       72.61       72.28       71.95       71.65       71.36       71.09       70.84       70.60    
        70.39       70.20       70.02       69.86       69.72       69.59       69.49       69.40       69.33       69.29    
        69.26       69.25       69.27       69.31       69.37       69.46       69.57       69.70       69.85       70.00    
  35  -1000.0       78.00       77.97       77.92       77.84       77.74       77.61       77.45       77.27       77.06    
        76.83       76.57       76.28       75.97       75.63       75.26       74.89       74.53       74.16       73.80    
        73.45       73.10       72.77       72.44       72.13       71.83       71.55       71.28       71.04       70.81    
        70.60       70.40       70.23       70.07       69.92       69.80       69.69       69.60       69.53       69.48    
        69.45       69.43       69.44       69.47       69.51       69.58       69.67       69.77       69.88       70.00    
  36  -1000.0       78.01       77.98       77.93       77.85       77.75       77.62       77.47       77.29       77.09    
        76.86       76.60       76.32       76.01       75.68       75.32       74.96       74.61       74.25       73.91    
        73.56       73.23       72.90       72.59       72.28       72.00       71.72       71.46       71.22       70.99    
        70.79       70.59       70.42       70.26       70.11       69.99       69.88       69.79       69.71       69.65    
        69.61       69.59       69.59       69.60       69.64       69.68       69.75       69.82       69.91       70.00    
  37  -1000.0       78.02       78.00       77.94       77.87       77.77       77.64       77.49       77.31       77.11    
        76.89       76.64       76.36       76.06       75.73       75.38       75.03       74.68       74.34       74.00    
        73.67       73.34       73.03       72.72       72.43       72.15       71.88       71.62       71.39       71.16    
        70.96       70.76       70.59       70.43       70.28       70.16       70.04       69.95       69.87       69.81    
        69.76       69.73       69.72       69.72       69.74       69.77       69.82       69.87       69.93       70.00    
  38  -1000.0       78.03       78.01       77.96       77.88       77.78       77.66       77.51       77.33       77.14    
        76.91       76.67       76.40       76.10       75.78       75.43       75.09       74.75       74.42       74.09    
        73.77       73.45       73.14       72.84       72.56       72.28       72.02       71.77       71.54       71.32    
        71.11       70.92       70.74       70.58       70.44       70.31       70.20       70.10       70.01       69.95    
        69.89       69.86       69.83       69.83       69.83       69.85       69.88       69.91       69.95       70.00    
  39  -1000.0       78.05       78.02       77.97       77.90       77.80       77.67       77.52       77.35       77.16    
        76.94       76.70       76.43       76.14       75.82       75.49       75.15       74.82       74.49       74.17    
        73.85       73.54       73.24       72.95       72.67       72.40       72.15       71.90       71.67       71.45    
        71.25       71.06       70.88       70.72       70.58       70.45       70.33       70.23       70.14       70.07    
        70.01       69.97       69.93       69.92       69.91       69.91       69.93       69.95       69.97       70.00    
  40  -1000.0       78.06       78.03       77.98       77.91       77.81       77.68       77.54       77.37       77.18    
        76.96       76.72       76.46       76.17       75.87       75.53       75.20       74.88       74.56       74.24    
        73.93       73.63       73.33       73.05       72.77       72.51       72.26       72.02       71.79       71.57    
        71.37       71.18       71.01       70.85       70.70       70.57       70.45       70.34       70.25       70.18    
        70.11       70.06       70.02       69.99       69.98       69.97       69.97       69.98       69.99       70.00    
  41  -1000.0       78.07       78.05       77.99       77.91       77.82       77.69       77.55       77.38       77.19    
        76.98       76.75       76.49       76.21       75.90       75.57       75.25       74.93       74.61       74.30    
        74.00       73.70       73.42       73.14       72.87       72.61       72.36       72.12       71.89       71.68    
        71.48       71.29       71.12       70.96       70.81       70.68       70.55       70.45       70.35       70.27    
        70.20       70.14       70.10       70.06       70.04       70.02       70.01       70.00       70.00       70.00    
  42  -1000.0       78.11       78.06       78.00       77.92       77.82       77.70       77.56       77.39       77.20    
        77.00       76.76       76.51       76.23       75.93       75.61       75.29       74.98       74.67       74.36    
        74.06       73.77       73.49       73.21       72.95       72.69       72.44       72.21       71.99       71.77    
        71.58       71.39       71.21       71.05       70.90       70.77       70.65       70.54       70.44       70.35    
        70.28       70.21       70.16       70.12       70.08       70.06       70.04       70.02       70.01       70.00    
  43  -1000.0       78.14       78.09       78.00       77.92       77.82       77.70       77.56       77.40       77.21    
        77.01       76.78       76.53       76.26       75.96       75.64       75.33       75.02       74.71       74.41    
        74.12       73.83       73.55       73.28       73.01       72.76       72.52       72.29       72.07       71.86    
        71.66       71.47       71.30       71.14       70.99       70.85       70.72       70.61       70.51       70.42    
        70.34       70.28       70.22       70.17       70.13       70.09       70.06       70.04       70.02       70.00    
  44  -1000.0     -1000.0       78.12       78.04       77.92       77.82       77.70       77.56       77.40       77.22    
        77.01       76.79       76.54       76.28       75.98       75.67       75.36       75.05       74.75       74.45    
        74.16       73.88       73.60       73.33       73.07       72.82       72.58       72.35       72.13       71.92    
        71.73       71.54       71.37       71.21       71.06       70.92       70.79       70.68       70.57       70.48    
        70.40       70.33       70.26       70.21       70.16       70.12       70.09       70.06       70.03       70.00    
  45  -1000.0     -1000.0     -1000.0       78.05       77.95       77.80       77.69       77.55       77.39       77.21    
        77.02       76.80       76.56       76.29       76.00       75.69       75.38       75.08       74.78       74.49    
        74.20       73.92       73.64       73.38       73.12       72.87       72.63       72.41       72.19       71.98    
        71.78       71.60       71.43       71.26       71.11       70.97       70.85       70.73       70.62       70.53    
        70.44       70.37       70.30       70.24       70.19       70.14       70.10       70.07       70.03       70.00    
  46  -1000.0     -1000.0     -1000.0     -1000.0       77.96       77.83       77.67       77.53       77.38       77.21    
        77.01       76.80       76.56       76.30       76.02       75.71       75.40       75.10       74.81       74.51    
        74.23       73.95       73.68       73.42       73.16       72.91       72.68       72.45       72.23       72.02    
        71.83       71.64       71.47       71.31       71.16       71.02       70.89       70.77       70.66       70.57    
        70.48       70.40       70.33       70.27       70.21       70.16       70.12       70.08       70.04       70.00    
  47  -1000.0     -1000.0     -1000.0     -1000.0     -1000.0       77.83       77.69       77.51       77.36       77.19    
        77.01       76.80       76.57       76.31       76.03       75.72       75.42       75.12       74.82       74.54    
        74.25       73.97       73.70       73.44       73.19       72.94       72.71       72.48       72.26       72.06    
        71.86       71.68       71.50       71.34       71.19       71.05       70.92       70.80       70.69       70.60    
        70.51       70.43       70.35       70.29       70.23       70.18       70.13       70.08       70.04       70.00    
  48  -1000.0     -1000.0     -1000.0     -1000.0     -1000.0     -1000.0       77.69       77.53       77.33       77.17    
        77.00       76.80       76.57       76.31       76.03       75.73       75.43       75.13       74.84       74.55    
        74.27       73.99       73.72       73.46       73.21       72.96       72.73       72.50       72.29       72.08    
        71.89       71.70       71.53       71.36       71.21       71.07       70.94       70.82       70.71       70.61    
        70.52       70.44       70.37       70.30       70.24       70.19       70.14       70.09       70.04       70.00    
  49  -1000.0     -1000.0     -1000.0     -1000.0     -1000.0     -1000.0     -1000.0       77.54       77.36       77.15    
        76.99       76.79       76.57       76.31       76.03       75.73       75.43       75.14       74.84       74.56    
        74.27       74.00       73.73       73.47       73.22       72.97       72.74       72.51       72.30       72.09    
        71.90       71.71       71.54       71.38       71.22       71.08       70.95       70.83       70.72       70.62    
        70.53       70.45       70.37       70.31       70.25       70.19       70.14       70.09       70.04       70.00    
  50  -1000.0     -1000.0     -1000.0     -1000.0     -1000.0     -1000.0     -1000.0     -1000.0     -1000.0     -1000.0    
      -1000.0     -1000.0     -1000.0     -1000.0     -1000.0     -1000.0     -1000.0     -1000.0     -1000.0     -1000.0    
      -1000.0     -1000.0     -1000.0     -1000.0     -1000.0     -1000.0     -1000.0     -1000.0     -1000.0     -1000.0    
      -1000.0     -1000.0     -1000.0     -1000.0     -1000.0     -1000.0     -1000.0     -1000.0     -1000.0     -1000.0    
      -1000.0     -1000.0     -1000.0     -1000.0     -1000.0     -1000.0     -1000.0     -1000.0     -1000.0       70.00    
1
              HEAD IN LAYER   3 AT END OF TIME STEP   1 IN STRESS PERIOD    1
  ---------------------------------------------------------------------------

            1           2           3           4           5           6           7           8           9          10
           11          12          13          14          15          16          17          18          19          20
           21          22          23          24          25          26          27          28          29          30
           31          32          33          34          35          36          37          38          39          40
[...]
        72.24       71.73       71.24       70.78       70.38       70.05       69.73       69.45       69.20       68.98    
        68.77       68.58       68.39       68.20       67.99       67.76       67.47       67.13       66.78       67.05    
        67.32       67.52       67.69       67.85       68.02       68.23       68.49       68.84       69.33       70.00    
  24  -1000.0       77.64       77.61       77.55       77.45       77.32       77.17       76.98       76.77       76.52    
        76.25       75.96       75.64       75.30       74.93       74.54       74.14       73.73       73.30       72.82    
        72.29       71.75       71.23       70.76       70.36       70.05       69.68       69.37       69.10       68.87    
        68.67       68.48       68.30       68.12       67.93       67.73       67.52       67.31       67.16       67.21    
        67.33       67.45       67.58       67.71       67.87       68.07       68.34       68.72       69.25       70.00    
  25  -1000.0       77.95       77.92       77.86       77.76       77.64       77.49       77.31       77.10       76.86    
        76.59       76.30       75.98       75.63       75.25       74.84       74.41       73.95       73.46       72.93    
        72.38       71.82       71.28       70.80       70.43       70.30       69.74       69.38       69.10       68.86    
        68.66       68.47       68.29       68.13       67.96       67.79       67.63       67.48       67.38       67.37    
        67.42       67.48       67.57       67.68       67.83       68.02       68.30       68.70       69.25       70.00    
  26  -1000.0       77.94       77.91       77.85       77.76       77.64       77.49       77.31       77.11       76.87    
        76.61       76.32       75.99       75.64       75.25       74.82       74.36       73.87       73.35       72.80    
        72.23       71.67       71.12       70.62       70.20       69.88       69.50       69.17       68.90       68.67    
        68.47       68.28       68.11       67.95       67.79       67.65       67.51       67.40       67.32       67.28    
        67.29       67.33       67.39       67.48       67.62       67.81       68.09       68.50       69.10       70.00    
  27  -1000.0       77.94       77.91       77.85       77.76       77.64       77.50       77.32       77.12       76.88    
        76.62       76.33       76.01       75.65       75.26       74.83       74.37       73.89       73.37       72.83    
        72.27       71.71       71.16       70.66       70.21       69.85       69.51       69.21       68.95       68.72    
        68.52       68.34       68.17       68.01       67.87       67.73       67.61       67.51       67.44       67.40    
        67.39       67.41       67.45       67.54       67.66       67.85       68.13       68.53       69.12       70.00    
  28  -1000.0       77.94       77.91       77.85       77.76       77.65       77.50       77.33       77.13       76.90    
        76.64       76.35       76.03       75.67       75.28       74.85       74.41       73.94       73.45       72.94    
        72.41       71.87       71.35       70.86       70.41       70.04       69.71       69.42       69.16       68.94    
        68.74       68.55       68.39       68.23       68.09       67.97       67.86       67.76       67.69       67.65    
        67.63       67.64       67.69       67.76       67.88       68.06       68.33       68.70       69.23       70.00    
  29  -1000.0       77.94       77.91       77.85       77.77       77.65       77.51       77.34       77.14       76.92    
        76.66       76.37       76.05       75.70       75.32       74.89       74.46       74.01       73.54       73.06    
        72.58       72.09       71.62       71.16       70.75       70.36       70.03       69.74       69.49       69.26    
        69.05       68.86       68.69       68.54       68.40       68.28       68.17       68.08       68.02       67.98    
        67.96       67.97       68.01       68.09       68.21       68.38       68.63       68.97       69.42       70.00    
  30  -1000.0       77.94       77.92       77.86       77.78       77.66       77.52       77.36       77.16       76.94    
        76.68       76.40       76.08       75.74       75.36       74.94       74.52       74.09       73.64       73.19    
        72.74       72.29       71.85       71.44       71.04       70.67       70.35       70.06       69.80       69.57    
        69.36       69.17       69.00       68.84       68.70       68.58       68.48       68.39       68.33       68.29    
        68.27       68.28       68.33       68.40       68.51       68.68       68.90       69.18       69.55       70.00    
  31  -1000.0       77.95       77.92       77.87       77.79       77.68       77.54       77.37       77.18       76.96    
        76.71       76.43       76.12       75.78       75.41       75.00       74.59       74.17       73.75       73.33    
        72.90       72.48       72.07       71.68       71.31       70.96       70.64       70.36       70.10       69.86    
        69.65       69.46       69.28       69.12       68.98       68.86       68.76       68.68       68.61       68.57    
        68.56       68.57       68.61       68.68       68.78       68.93       69.12       69.36       69.66       70.00    
  32  -1000.0       77.96       77.93       77.88       77.80       77.69       77.55       77.39       77.20       76.98    
        76.74       76.46       76.16       75.82       75.46       75.07       74.67       74.26       73.86       73.45    
        73.05       72.65       72.27       71.90       71.54       71.21       70.91       70.63       70.37       70.13    
        69.92       69.72       69.55       69.39       69.25       69.13       69.02       68.94       68.88       68.84    
        68.82       68.82       68.86       68.92       69.01       69.14       69.30       69.51       69.74       70.00    
  33  -1000.0       77.97       77.94       77.89       77.81       77.70       77.57       77.41       77.22       77.01    
        76.77       76.50       76.20       75.87       75.51       75.13       74.74       74.35       73.96       73.58    
        73.19       72.82       72.45       72.10       71.76       71.44       71.14       70.87       70.61       70.38    
        70.16       69.97       69.79       69.63       69.49       69.37       69.27       69.18       69.12       69.07    
        69.05       69.05       69.08       69.13       69.21       69.32       69.45       69.61       69.80       70.00    
  34  -1000.0       77.98       77.96       77.90       77.82       77.72       77.59       77.43       77.25       77.03    
        76.80       76.53       76.24       75.92       75.57       75.19       74.82       74.44       74.07       73.69    
        73.33       72.97       72.61       72.28       71.95       71.65       71.36       71.09       70.84       70.60    
        70.39       70.20       70.02       69.86       69.72       69.59       69.49       69.40       69.33       69.29    
        69.26       69.25       69.27       69.31       69.37       69.46       69.57       69.70       69.85       70.00    
  35  -1000.0       78.00       77.97       77.92       77.84       77.74       77.61       77.45       77.27       77.06    
        76.83       76.57       76.28       75.97       75.63       75.26       74.89       74.53       74.16       73.80    
        73.45       73.10       72.77       72.44       72.13       71.83       71.55       71.28       71.04       70.81    
        70.60       70.40       70.23       70.07       69.92       69.80       69.69       69.60       69.53       69.48    
        69.45       69.43       69.44       69.47       69.51       69.58       69.67       69.77       69.88       70.00    
  36  -1000.0       78.01       77.98       77.93       77.85       77.75       77.62       77.47       77.29       77.09    
        76.86       76.60       76.32       76.01       75.68       75.32       74.96       74.61       74.25       73.91    
        73.56       73.23       72.90       72.59       72.28       72.00       71.72       71.46       71.22       70.99    
        70.79       70.59       70.42       70.26       70.11       69.99       69.88       69.79       69.71       69.65    
        69.61       69.59       69.59       69.60       69.64       69.68       69.75       69.82       69.91       70.00    
  37  -1000.0       78.02       78.00       77.94       77.87       77.77       77.64       77.49       77.31       77.11    
        76.89       76.64       76.36       76.06       75.73       75.38       75.03       74.68       74.34       74.00    
        73.67       73.34       73.03       72.72       72.43       72.15       71.88       71.62       71.39       71.16    
        70.96       70.76       70.59       70.43       70.28       70.16       70.04       69.95       69.87       69.81    
        69.76       69.73       69.72       69.72       69.74       69.77       69.82       69.87       69.93       70.00    
  38  -1000.0       78.03       78.01       77.96       77.88       77.78       77.66       77.51       77.33       77.14    
        76.91       76.67       76.40       76.10       75.78       75.43       75.09       74.75       74.42       74.09    
        73.77       73.45       73.14       72.84       72.56       72.28       72.02       71.77       71.54       71.32    
        71.11       70.92       70.74       70.58       70.44       70.31       70.20       70.10       70.01       69.95    
        69.89       69.86       69.83       69.83       69.83       69.85       69.88       69.91       69.95       70.00    
  39  -1000.0       78.05       78.02       77.97       77.89       77.80       77.67       77.52       77.35       77.16    
        76.94       76.70       76.43       76.14       75.82       75.49       75.15       74.82       74.49       74.17    
        73.85       73.54       73.24       72.95       72.67       72.40       72.15       71.90       71.67       71.45    
        71.25       71.06       70.88       70.72       70.58       70.45       70.33       70.23       70.14       70.07    
        70.01       69.97       69.93       69.92       69.91       69.91       69.93       69.95       69.97       70.00    
  40  -1000.0       78.06       78.03       77.98       77.91       77.81       77.68       77.54       77.37       77.18    
        76.96       76.72       76.46       76.17       75.87       75.53       75.20       74.88       74.56       74.24    
        73.93       73.63       73.33       73.05       72.77       72.51       72.26       72.02       71.79       71.57    
        71.37       71.18       71.01       70.85       70.70       70.57       70.45       70.34       70.25       70.18    
        70.11       70.06       70.02       69.99       69.98       69.97       69.97       69.98       69.99       70.00    
  41  -1000.0       78.07       78.05       77.99       77.91       77.82       77.69       77.55       77.38       77.19    
        76.98       76.75       76.49       76.21       75.90       75.57       75.25       74.93       74.61       74.30    
        74.00       73.70       73.42       73.14       72.87       72.61       72.36       72.12       71.89       71.68    
        71.48       71.29       71.12       70.96       70.81       70.68       70.55       70.45       70.35       70.27    
        70.20       70.14       70.10       70.06       70.04       70.02       70.01       70.00       70.00       70.00    
  42  -1000.0     -1000.0       78.06       78.00       77.92       77.82       77.70       77.56       77.39       77.20    
        77.00       76.76       76.51       76.23       75.93       75.61       75.29       74.98       74.67       74.36    
        74.06       73.77       73.49       73.21       72.95       72.69       72.44       72.21       71.99       71.77    
        71.58       71.39       71.21       71.05       70.90       70.77       70.65       70.54       70.44       70.35    
        70.28       70.21       70.16       70.12       70.08       70.06       70.04       70.02       70.01       70.00    
  43  -1000.0     -1000.0     -1000.0       78.00       77.92       77.82       77.70       77.56       77.40       77.21    
        77.01       76.78       76.53       76.26       75.96       75.64       75.33       75.02       74.71       74.41    
        74.12       73.83       73.55       73.28       73.01       72.76       72.52       72.29       72.07       71.86    
        71.66       71.47       71.30       71.14       70.99       70.85       70.72       70.61       70.51       70.42    
        70.34       70.28       70.22       70.17       70.13       70.09       70.06       70.04       70.02       70.00    
  44  -1000.0     -1000.0     -1000.0     -1000.0       77.92       77.82       77.70       77.56       77.40       77.22    
        77.01       76.79       76.54       76.28       75.98       75.67       75.36       75.05       74.75       74.45    
        74.16       73.88       73.60       73.33       73.07       72.82       72.58       72.35       72.13       71.92    
        71.73       71.54       71.37       71.21       71.06       70.92       70.79       70.68       70.57       70.48    
        70.40       70.33       70.26       70.21       70.16       70.12       70.09       70.06       70.03       70.00    
  45  -1000.0     -1000.0     -1000.0     -1000.0     -1000.0       77.80       77.68       77.55       77.39       77.21    
        77.02       76.80       76.56       76.29       76.00       75.69       75.38       75.08       74.78       74.49    
        74.20       73.92       73.64       73.38       73.12       72.87       72.63       72.41       72.19       71.98    
        71.78       71.60       71.43       71.26       71.11       70.97       70.85       70.73       70.62       70.53    
        70.44       70.37       70.30       70.24       70.19       70.14       70.10       70.07       70.03       70.00    
  46  -1000.0     -1000.0     -1000.0     -1000.0     -1000.0     -1000.0       77.67       77.53       77.38       77.21    
        77.01       76.80       76.56       76.30       76.02       75.71       75.40       75.10       74.81       74.51    
        74.23       73.95       73.68       73.42       73.16       72.91       72.68       72.45       72.23       72.02    
        71.83       71.64       71.47       71.31       71.16       71.02       70.89       70.77       70.66       70.57    
        70.48       70.40       70.33       70.27       70.21       70.16       70.12       70.08       70.04       70.00    
  47  -1000.0     -1000.0     -1000.0     -1000.0     -1000.0     -1000.0     -1000.0       77.51       77.36       77.19    
        77.01       76.80       76.57       76.31       76.03       75.72       75.42       75.12       74.82       74.54    
        74.25       73.97       73.70       73.44       73.19       72.94       72.71       72.48       72.26       72.06    
        71.86       71.68       71.50       71.34       71.19       71.05       70.92       70.80       70.69       70.60    
        70.51       70.43       70.35       70.29       70.23       70.18       70.13       70.08       70.04       70.00    
  48  -1000.0     -1000.0     -1000.0     -1000.0     -1000.0     -1000.0     -1000.0     -1000.0       77.33       77.17    
        77.00       76.80       76.57       76.31       76.03       75.73       75.43       75.13       74.84       74.55    
        74.27       73.99       73.72       73.46       73.21       72.96       72.73       72.50       72.29       72.08    
        71.89       71.70       71.53       71.36       71.21       71.07       70.94       70.82       70.71       70.61    
        70.52       70.44       70.37       70.30       70.24       70.19       70.14       70.09       70.04       70.00    
  49  -1000.0     -1000.0     -1000.0     -1000.0     -1000.0     -1000.0     -1000.0     -1000.0     -1000.0       77.15    
        76.99       76.79       76.57       76.31       76.03       75.73       75.43       75.14       74.84       74.56    
        74.27       74.00       73.73       73.47       73.22       72.97       72.74       72.51       72.30       72.09    
        71.90       71.71       71.54       71.38       71.22       71.08       70.95       70.83       70.72       70.62    
        70.53       70.45       70.37       70.31       70.25       70.19       70.14       70.09       70.04       70.00    
  50  -1000.0     -1000.0     -1000.0     -1000.0     -1000.0     -1000.0     -1000.0     -1000.0     -1000.0     -1000.0    
      -1000.0     -1000.0     -1000.0     -1000.0     -1000.0     -1000.0     -1000.0     -1000.0     -1000.0     -1000.0    
      -1000.0     -1000.0     -1000.0     -1000.0     -1000.0     -1000.0     -1000.0     -1000.0     -1000.0     -1000.0    
      -1000.0     -1000.0     -1000.0     -1000.0     -1000.0     -1000.0     -1000.0     -1000.0     -1000.0     -1000.0    
      -1000.0     -1000.0     -1000.0     -1000.0     -1000.0     -1000.0     -1000.0     -1000.0     -1000.0       70.00    

 HEAD WILL BE SAVED ON UNIT   51 AT END OF TIME STEP    1, STRESS PERIOD    1

 DRAWDOWN WILL BE SAVED ON UNIT   52 AT END OF TIME STEP    1, STRESS PERIOD    1
1
  VOLUMETRIC BUDGET FOR ENTIRE MODEL AT END OF TIME STEP    1, STRESS PERIOD   1
  ------------------------------------------------------------------------------

     CUMULATIVE VOLUMES      L**3       RATES FOR THIS TIME STEP      L**3/T
     ------------------                 ------------------------

           IN:                                      IN:
           ---                                      ---
             STORAGE =           0.0000               STORAGE =           0.0000
       CONSTANT HEAD =        3612.5513         CONSTANT HEAD =        3612.5513
               WELLS =         375.0000                 WELLS =         375.0000
       RIVER LEAKAGE =        6000.0000         RIVER LEAKAGE =        6000.0000
                  ET =           0.0000                    ET =           0.0000
            RECHARGE =        7120.0000              RECHARGE =        7120.0000

            TOTAL IN =       17107.5508              TOTAL IN =       17107.5508

          OUT:                                     OUT:
          ----                                     ----
             STORAGE =           0.0000               STORAGE =           0.0000
       CONSTANT HEAD =          89.9730         CONSTANT HEAD =          89.9730
               WELLS =        6000.0000                 WELLS =        6000.0000
       RIVER LEAKAGE =           0.0000         RIVER LEAKAGE =           0.0000
                  ET =       11017.5723                    ET =       11017.5723
            RECHARGE =           0.0000              RECHARGE =           0.0000

           TOTAL OUT =       17107.5449             TOTAL OUT =       17107.5449

            IN - OUT =       5.8594E-03              IN - OUT =       5.8594E-03

 PERCENT DISCREPANCY =           0.00     PERCENT DISCREPANCY =           0.00






         TIME SUMMARY AT END OF TIME STEP    1 IN STRESS PERIOD    1
                    SECONDS     MINUTES      HOURS       DAYS        YEARS
                    -----------------------------------------------------------
   TIME STEP LENGTH  86400.      1440.0      24.000      1.0000     2.73785E-03
 STRESS PERIOD TIME  86400.      1440.0      24.000      1.0000     2.73785E-03
         TOTAL TIME  86400.      1440.0      24.000      1.0000     2.73785E-03
1

 Run end date and time (yyyy/mm/dd hh:mm:ss): 2026/02/24 16:21:26
 Elapsed run time: 12.745 Seconds

