                                  MODFLOW-2005     
      U.S. GEOLOGICAL SURVEY MODULAR FINITE-DIFFERENCE GROUND-WATER FLOW MODEL
                            VERSION 1.12.00 2/3/2017

 LIST FILE: static_ensemble_1133133.list
                         UNIT    2

 OPENING static_ensemble_1133133.dis
 FILE TYPE:DIS   UNIT   11   STATUS:OLD    
 FORMAT:FORMATTED              ACCESS:SEQUENTIAL          

 OPENING static_ensemble_1133133.bas
 FILE TYPE:BAS6   UNIT   13   STATUS:OLD    
 FORMAT:FORMATTED              ACCESS:SEQUENTIAL          

 OPENING static_ensemble_1133133.lpf
 FILE TYPE:LPF   UNIT   15   STATUS:OLD    
 FORMAT:FORMATTED              ACCESS:SEQUENTIAL          

 OPENING static_ensemble_1133133.evt
 FILE TYPE:EVT   UNIT   22   STATUS:OLD    
 FORMAT:FORMATTED              ACCESS:SEQUENTIAL          

 OPENING static_ensemble_1133133.rch
 FILE TYPE:RCH   UNIT   19   STATUS:OLD    
 FORMAT:FORMATTED              ACCESS:SEQUENTIAL          

 OPENING static_ensemble_1133133.riv
 FILE TYPE:RIV   UNIT   18   STATUS:OLD    
 FORMAT:FORMATTED              ACCESS:SEQUENTIAL          

 OPENING static_ensemble_1133133.wel
 FILE TYPE:WEL   UNIT   20   STATUS:OLD    
 FORMAT:FORMATTED              ACCESS:SEQUENTIAL          

 OPENING static_ensemble_1133133.oc
 FILE TYPE:OC   UNIT   14   STATUS:OLD    
 FORMAT:FORMATTED              ACCESS:SEQUENTIAL          

 OPENING static_ensemble_1133133.pcg
 FILE TYPE:PCG   UNIT   27   STATUS:OLD    
 FORMAT:FORMATTED              ACCESS:SEQUENTIAL          

 OPENING static_ensemble_1133133.cbc
 FILE TYPE:DATA(BINARY)   UNIT   53   STATUS:REPLACE
 FORMAT:UNFORMATTED            ACCESS:STREAM              

 OPENING static_ensemble_1133133.hds
 FILE TYPE:DATA(BINARY)   UNIT   51   STATUS:REPLACE
 FORMAT:UNFORMATTED            ACCESS:STREAM              

 OPENING static_ensemble_1133133.ddn
 FILE TYPE:DATA(BINARY)   UNIT   52   STATUS:REPLACE
 FORMAT:UNFORMATTED            ACCESS:STREAM              

 BAS -- BASIC PACKAGE, VERSION 7, 5/2/2005 INPUT READ FROM UNIT   13
 
 MODFLOW was compiled using mixed precision
 Precision of REAL variables:           6
 Precision of DOUBLE PRECISION variables:          15

 DISCRETIZATION INPUT DATA READ FROM UNIT   11
 # DIS package for MODFLOW-2005 generated by Flopy 3.9.5
    3 LAYERS        50 ROWS        50 COLUMNS
   21 STRESS PERIOD(S) IN SIMULATION
 MODEL TIME UNIT IS DAYS
 MODEL LENGTH UNIT IS METERS
  Confining bed flag for each layer:
   0   0   0

                     DELR =   1000.00    

                     DELC =   1000.00    



           TOP ELEVATION OF LAYER 1
 READING ON UNIT   11 WITH FORMAT: (50E15.6)           



             MODEL LAYER BOTTOM EL. FOR LAYER   1
 READING ON UNIT   11 WITH FORMAT: (50E15.6)           



             MODEL LAYER BOTTOM EL. FOR LAYER   2
 READING ON UNIT   11 WITH FORMAT: (50E15.6)           



             MODEL LAYER BOTTOM EL. FOR LAYER   3
 READING ON UNIT   11 WITH FORMAT: (50E15.6)           


 STRESS PERIOD     LENGTH       TIME STEPS     MULTIPLIER FOR DELT    SS FLAG
 ----------------------------------------------------------------------------
        1         1.000000          1                    1.000         TR
        2         1.000000          1                    1.000         TR
        3         1.000000          1                    1.000         TR
        4         1.000000          1                    1.000         TR
        5         1.000000          1                    1.000         TR
        6         1.000000          1                    1.000         TR
        7         1.000000          1                    1.000         TR
        8         1.000000          1                    1.000         TR
        9         1.000000          1                    1.000         TR
       10         1.000000          1                    1.000         TR
       11         1.000000          1                    1.000         TR
       12         1.000000          1                    1.000         TR
       13         1.000000          1                    1.000         TR
       14         1.000000          1                    1.000         TR
       15         1.000000          1                    1.000         TR
       16         1.000000          1                    1.000         TR
       17         1.000000          1                    1.000         TR
       18         1.000000          1                    1.000         TR
       19         1.000000          1                    1.000         TR
       20         1.000000          1                    1.000         TR
       21         1.000000          1                    1.000         TR

 TRANSIENT SIMULATION



 
 # BAS6 package for MODFLOW-2005 generated by Flopy 3.9.5                        
 THE FREE FORMAT OPTION HAS BEEN SELECTED



                     BOUNDARY ARRAY FOR LAYER   1
 READING ON UNIT   13 WITH FORMAT: (50I10)             



                     BOUNDARY ARRAY FOR LAYER   2
 READING ON UNIT   13 WITH FORMAT: (50I10)             



                     BOUNDARY ARRAY FOR LAYER   3
 READING ON UNIT   13 WITH FORMAT: (50I10)             

 AQUIFER HEAD WILL BE SET TO  -999.99     AT ALL NO-FLOW NODES (IBOUND=0).



                       INITIAL HEAD FOR LAYER   1
 READING ON UNIT   13 WITH FORMAT: (50E15.6)           



                       INITIAL HEAD FOR LAYER   2
 READING ON UNIT   13 WITH FORMAT: (50E15.6)           



                       INITIAL HEAD FOR LAYER   3
 READING ON UNIT   13 WITH FORMAT: (50E15.6)           
 # OC package for MODFLOW-2005 generated by Flopy 3.9.5

 OUTPUT CONTROL IS SPECIFIED ONLY AT TIME STEPS FOR WHICH OUTPUT IS DESIRED
 COMPACT CELL-BY-CELL BUDGET FILES WILL BE WRITTEN
 AUXILIARY DATA WILL BE SAVED IN CELL-BY-CELL BUDGET FILES
 HEAD PRINT FORMAT CODE IS   0    DRAWDOWN PRINT FORMAT CODE IS   0
 HEADS WILL BE SAVED ON UNIT   51    DRAWDOWNS WILL BE SAVED ON UNIT   52

 LPF -- LAYER-PROPERTY FLOW PACKAGE, VERSION 7, 5/2/2005
         INPUT READ FROM UNIT   15
 # LPF package for MODFLOW-2005 generated by Flopy 3.9.5
 CELL-BY-CELL FLOWS WILL BE SAVED ON UNIT   53
 HEAD AT CELLS THAT CONVERT TO DRY= -1.00000E+30
 No named parameters
 STORAGECOEFFICIENT OPTION:
 Read storage coefficient rather than specific storage

   LAYER FLAGS:
 LAYER       LAYTYP        LAYAVG         CHANI        LAYVKA        LAYWET
 ---------------------------------------------------------------------------
    1             1             0     1.000E+00             0             0
    2             1             0     1.000E+00             0             0
    3             1             0     1.000E+00             0             0

   INTERPRETATION OF LAYER FLAGS:
                        INTERBLOCK     HORIZONTAL    DATA IN
         LAYER TYPE   TRANSMISSIVITY   ANISOTROPY   ARRAY VKA   WETTABILITY
 LAYER      (LAYTYP)      (LAYAVG)       (CHANI)      (LAYVKA)      (LAYWET)
 ---------------------------------------------------------------------------
    1   CONVERTIBLE      HARMONIC     1.000E+00    VERTICAL K  NON-WETTABLE
    2   CONVERTIBLE      HARMONIC     1.000E+00    VERTICAL K  NON-WETTABLE
    3   CONVERTIBLE      HARMONIC     1.000E+00    VERTICAL K  NON-WETTABLE

 WETTING CAPABILITY IS NOT ACTIVE IN ANY LAYER



              HYD. COND. ALONG ROWS FOR LAYER   1
 READING ON UNIT   15 WITH FORMAT: (50E15.6)           



                VERTICAL HYD. COND. FOR LAYER   1
 READING ON UNIT   15 WITH FORMAT: (50E15.6)           

      STORAGE COEFFICIENT =  1.000000E-06 FOR LAYER   1

           SPECIFIC YIELD =  0.300000     FOR LAYER   1



              HYD. COND. ALONG ROWS FOR LAYER   2
 READING ON UNIT   15 WITH FORMAT: (50E15.6)           



                VERTICAL HYD. COND. FOR LAYER   2
 READING ON UNIT   15 WITH FORMAT: (50E15.6)           

      STORAGE COEFFICIENT =  1.000000E-06 FOR LAYER   2

           SPECIFIC YIELD =  0.300000     FOR LAYER   2



              HYD. COND. ALONG ROWS FOR LAYER   3
 READING ON UNIT   15 WITH FORMAT: (50E15.6)           



                VERTICAL HYD. COND. FOR LAYER   3
 READING ON UNIT   15 WITH FORMAT: (50E15.6)           

      STORAGE COEFFICIENT =  1.000000E-06 FOR LAYER   3

           SPECIFIC YIELD =  0.300000     FOR LAYER   3

 WEL -- WELL PACKAGE, VERSION 7, 5/2/2005 INPUT READ FROM UNIT   20
 # WEL package for MODFLOW-2005 generated by Flopy 3.9.5
 No named parameters
 MAXIMUM OF      3 ACTIVE WELLS AT ONE TIME


     0 Well parameters

 RIV -- RIVER PACKAGE, VERSION 7, 5/2/2005 INPUT READ FROM UNIT   18
 # RIV package for MODFLOW-2005 generated by Flopy 3.9.5
 No named parameters
 MAXIMUM OF     49 ACTIVE RIVER REACHES AT ONE TIME
 CELL-BY-CELL FLOWS WILL BE SAVED ON UNIT   53


     0 River parameters

 EVT -- EVAPOTRANSPIRATION PACKAGE, VERSION 7, 5/2/2005
         INPUT READ FROM UNIT   22
 # EVT package for MODFLOW-2005 generated by Flopy 3.9.5
 No named parameters
 OPTION 3 -- EVAPOTRANSPIRATION FROM HIGHEST ACTIVE NODE IN EACH VERTICAL COLUMN
 CELL-BY-CELL FLOWS WILL BE SAVED ON UNIT   53


     0 Evapotranspiration parameters

 RCH -- RECHARGE PACKAGE, VERSION 7, 5/2/2005 INPUT READ FROM UNIT   19
 # RCH package for MODFLOW-2005 generated by Flopy 3.9.5
 No named parameters
 OPTION 3 -- RECHARGE TO HIGHEST ACTIVE NODE IN EACH VERTICAL COLUMN
 CELL-BY-CELL FLOWS WILL BE SAVED ON UNIT   53


     0 Recharge parameters

 PCG -- CONJUGATE-GRADIENT SOLUTION PACKAGE, VERSION 7, 5/2/2005
 # PCG package for MODFLOW-2005 generated by Flopy 3.9.5
 MAXIMUM OF   5000 CALLS OF SOLUTION ROUTINE
 MAXIMUM OF    500 INTERNAL ITERATIONS PER CALL TO SOLUTION ROUTINE
 MATRIX PRECONDITIONING TYPE :    1



                                    SOLUTION BY THE CONJUGATE-GRADIENT METHOD
                                   -------------------------------------------
                    MAXIMUM NUMBER OF CALLS TO PCG ROUTINE =     5000
                        MAXIMUM ITERATIONS PER CALL TO PCG =      500
                               MATRIX PRECONDITIONING TYPE =        1
        RELAXATION FACTOR (ONLY USED WITH PRECOND. TYPE 1) =    0.97000E+00
 PARAMETER OF POLYNOMIAL PRECOND. = 2 (2) OR IS CALCULATED :        0
                         HEAD CHANGE CRITERION FOR CLOSURE =    0.10000E-04
                     RESIDUAL CHANGE CRITERION FOR CLOSURE =    0.10000E-04
            PCG HEAD AND RESIDUAL CHANGE PRINTOUT INTERVAL =      999
     PRINTING FROM SOLVER IS LIMITED(1) OR SUPPRESSED (>1) =        3
                            STEADY-STATE DAMPING PARAMETER =    0.10000E-01
                               TRANSIENT DAMPING PARAMETER =    0.10000E-01
1
                            STRESS PERIOD NO.    1, LENGTH =   1.000000    
                            -----------------------------------------------

                              NUMBER OF TIME STEPS =     1

                               MULTIPLIER FOR DELT =     1.000

                            INITIAL TIME STEP SIZE =   1.000000    

 WELL NO.  LAYER   ROW   COL   STRESS RATE         
 --------------------------------------------------
      1      3     22     39      -1500.    
      2      1     13     15      -4500.    
      3      1     25     26       375.0    

      3 WELLS

 REACH NO.  LAYER   ROW   COL     STAGE      CONDUCTANCE     BOTTOM EL.         
 -------------------------------------------------------------------------------
      1      1     25      2       100.5           5000.           98.00    
      2      1     25      3       99.50           5000.           97.00    
      3      1     25      4       98.50           5000.           96.00    
      4      1     25      5       97.50           5000.           95.00    
      5      1     25      6       96.50           5000.           94.00    
      6      1     25      7       95.50           5000.           93.00    
      7      1     25      8       94.50           5000.           92.00    
      8      1     25      9       93.50           5000.           91.00    
      9      1     25     10       92.50           5000.           90.00    
     10      1     25     11       91.50           5000.           89.00    
     11      1     25     12       90.50           5000.           88.00    
     12      1     25     13       89.50           5000.           87.00    
     13      1     25     14       88.50           5000.           86.00    
     14      1     25     15       87.50           5000.           85.00    
     15      1     25     16       86.50           5000.           84.00    
     16      1     25     17       85.50           5000.           83.00    
     17      1     25     18       84.50           5000.           82.00    
     18      1     25     19       83.50           5000.           81.00    
     19      1     25     20       82.50           5000.           80.00    
     20      1     25     21       81.50           5000.           79.00    
     21      1     25     22       80.50           5000.           78.00    
     22      1     25     23       79.50           5000.           77.00    
     23      1     25     24       78.50           5000.           76.00    
     24      1     25     25       77.50           5000.           75.00    
     25      1     25     26       77.40           5000.           74.90    
     26      1     25     27       77.30           5000.           74.80    
     27      1     25     28       77.20           5000.           74.70    
     28      1     25     29       77.10           5000.           74.60    
     29      1     25     30       77.00           5000.           74.50    
     30      1     25     31       76.90           5000.           74.40    
     31      1     25     32       76.80           5000.           74.30    
     32      1     25     33       76.70           5000.           74.20    
     33      1     25     34       76.60           5000.           74.10    
     34      1     25     35       76.50           5000.           74.00    
     35      1     25     36       76.40           5000.           73.90    
     36      1     25     37       76.30           5000.           73.80    
     37      1     25     38       76.20           5000.           73.70    
     38      1     25     39       76.10           5000.           73.60    
     39      1     25     40       76.00           5000.           73.50    
     40      1     25     41       75.90           5000.           73.40    
     41      1     25     42       75.80           5000.           73.30    
     42      1     25     43       75.70           5000.           73.20    
     43      1     25     44       75.60           5000.           73.10    
     44      1     25     45       75.50           5000.           73.00    
     45      1     25     46       75.40           5000.           72.90    
     46      1     25     47       75.30           5000.           72.80    
     47      1     25     48       75.20           5000.           72.70    
     48      1     25     49       75.10           5000.           72.60    
     49      1     25     50       75.00           5000.           72.50    

     49 RIVER REACHES



                         ET SURFACE
 READING ON UNIT   22 WITH FORMAT: (50E15.6)           



            EVAPOTRANSPIRATION RATE
 READING ON UNIT   22 WITH FORMAT: (50E15.6)           

         EXTINCTION DEPTH =   10.0000    



                           RECHARGE
 READING ON UNIT   19 WITH FORMAT: (50E15.6)           
 
 SOLVING FOR HEAD 

 OUTPUT CONTROL FOR STRESS PERIOD    1   TIME STEP    1
    SAVE HEAD FOR ALL LAYERS
    SAVE DRAWDOWN FOR ALL LAYERS
    SAVE BUDGET
    PRINT HEAD FOR ALL LAYERS
    PRINT BUDGET
 UBDSV1 SAVING "         STORAGE" ON UNIT  53 AT TIME STEP  1, STRESS PERIOD   1
 UBDSV2 SAVING "   CONSTANT HEAD" ON UNIT  53 AT TIME STEP  1, STRESS PERIOD   1
 UBDSV1 SAVING "FLOW RIGHT FACE " ON UNIT  53 AT TIME STEP  1, STRESS PERIOD   1
 UBDSV1 SAVING "FLOW FRONT FACE " ON UNIT  53 AT TIME STEP  1, STRESS PERIOD   1
 UBDSV1 SAVING "FLOW LOWER FACE " ON UNIT  53 AT TIME STEP  1, STRESS PERIOD   1
 UBDSV4 SAVING "   RIVER LEAKAGE" ON UNIT  53 AT TIME STEP  1, STRESS PERIOD   1
 UBDSV3 SAVING "              ET" ON UNIT  53 AT TIME STEP  1, STRESS PERIOD   1
 UBDSV3 SAVING "        RECHARGE" ON UNIT  53 AT TIME STEP  1, STRESS PERIOD   1
1
              HEAD IN LAYER   1 AT END OF TIME STEP   1 IN STRESS PERIOD    1
  ---------------------------------------------------------------------------

            1           2           3           4           5           6           7           8           9          10
           11          12          13          14          15          16          17          18          19          20
           21          22          23          24          25          26          27          28          29          30
           31          32          33          34          35          36          37          38          39          40
           41          42          43          44          45          46          47          48          49          50
 ........................................................................................................................
   1  -1000.0     -1000.0     -1000.0     -1000.0     -1000.0     -1000.0     -1000.0     -1000.0     -1000.0     -1000.0    
      -1000.0     -1000.0     -1000.0     -1000.0     -1000.0     -1000.0     -1000.0     -1000.0     -1000.0     -1000.0    
      -1000.0     -1000.0     -1000.0     -1000.0     -1000.0     -1000.0     -1000.0     -1000.0     -1000.0     -1000.0    
      -1000.0     -1000.0     -1000.0     -1000.0     -1000.0     -1000.0     -1000.0     -1000.0     -1000.0     -1000.0    
      -1000.0     -1000.0     -1000.0     -1000.0     -1000.0     -1000.0     -1000.0     -1000.0     -1000.0       70.00    
   2  -1000.0     -1000.0     -1000.0     -1000.0     -1000.0       70.00       70.00       70.00       70.00       70.00    
        70.00       70.00       70.00       70.00       70.00       70.00       70.00       70.00       70.00       70.00    
        70.00       70.00       70.00       70.00       70.00       70.00       70.00       70.00       70.00       70.00    
        70.00       70.00       70.00       70.00       70.00       70.00       70.00       70.00       70.00       70.00    
        70.00       70.00       70.00       70.00       70.00       70.00       70.00       70.00       70.00       70.00    
   3  -1000.0     -1000.0     -1000.0     -1000.0       70.00       70.00       70.00       70.00       70.00       70.00    
        70.00       70.00       70.00       70.00       70.00       70.00       70.00       70.00       70.00       70.00    
        70.00       70.00       70.00       70.00       70.00       70.00       70.00       70.00       70.00       70.00    
        70.00       70.00       70.00       70.00       70.00       70.00       70.00       70.00       70.00       70.00    
        70.00       70.00       70.00       70.00       70.00       70.00       70.00       70.00       70.00       70.00    
   4  -1000.0     -1000.0     -1000.0       70.00       70.00       70.00       70.00       70.00       70.00       70.00    
        70.00       70.00       70.00       70.00       70.00       70.00       70.00       70.00       70.00       70.00    
        70.00       70.00       70.00       70.00       70.00       70.00       70.00       70.00       70.00       70.00    
        70.00       70.00       70.00       70.00       70.00       70.00       70.00       70.00       70.00       70.00    
        70.00       70.00       70.00       70.00       70.00       70.00       70.00       70.00       70.00       70.00    
   5  -1000.0     -1000.0       70.00       70.00       70.00       70.00       70.00       70.00       70.00       70.00    
        70.00       70.00       70.00       70.00       70.00       70.00       70.00       70.00       70.00       70.00    
        70.00       70.00       70.00       70.00       70.00       70.00       70.00       70.00       70.00       70.00    
        70.00       70.00       70.00       70.00       70.00       70.00       70.00       70.00       70.00       70.00    
        70.00       70.00       70.00       70.00       70.00       70.00       70.00       70.00       70.00       70.00    
   6  -1000.0       70.00       70.00       70.00       70.00       70.00       70.00       70.00       70.00       70.00    
        70.00       70.00       70.00       70.00       70.00       70.00       70.00       70.00       70.00       70.00    
        70.00       70.00       70.00       70.00       70.00       70.00       70.00       70.00       70.00       70.00    
        70.00       70.00       70.00       70.00       70.00       70.00       70.00       70.00       70.00       70.00    
        70.00       70.00       70.00       70.00       70.00       70.00       70.00       70.00       70.00       70.00    
   7  -1000.0       70.00       70.00       70.00       70.00       70.00       70.00       70.00       70.00       70.00    
        70.00       70.00       70.00       70.00       70.00       70.00       70.00       70.00       70.00       70.00    
        70.00       70.00       70.00       70.00       70.00       70.00       70.00       70.00       70.00       70.00    
        70.00       70.00       70.00       70.00       70.00       70.00       70.00       70.00       70.00       70.00    
        70.00       70.00       70.00       70.00       70.00       70.00       70.00       70.00       70.00       70.00    
   8  -1000.0       70.00       70.00       70.00       70.00       70.00       70.00       70.00       70.00       70.00    
        70.00       70.00       70.00       70.00       70.00       70.00       70.00       70.00       70.00       70.00    
        70.00       70.00       70.00       70.00       70.00       70.00       70.00       70.00       70.00       70.00    
        70.00       70.00       70.00       70.00       70.00       70.00       70.00       70.00       70.00       70.00    
        70.00       70.00       70.00       70.00       70.00       70.00       70.00       70.00       70.00       70.00    
   9  -1000.0       70.00       70.00       70.00       70.00       70.00       70.00       70.00       70.00       70.00    
        70.00       70.00       70.00       70.00       70.00       70.00       70.00       70.00       70.00       70.00    
        70.00       70.00       70.00       70.00       70.00       70.00       70.00       70.00       70.00       70.00    
        70.00       70.00       70.00       70.00       70.00       70.00       70.00       70.00       70.00       70.00    
        70.00       70.00       70.00       70.00       70.00       70.00       70.00       70.00       70.00       70.00    
  10  -1000.0       70.00       70.00       70.00       70.00       70.00       70.00       70.00       70.00       70.00    
        70.00       70.00       70.00       70.00       70.00       70.00       70.00       70.00       70.00       70.00    
        70.00       70.00       70.00       70.00       70.00       70.00       70.00       70.00       70.00       70.00    
        70.00       70.00       70.00       70.00       70.00       70.00       70.00       70.00       70.00       70.00    
        70.00       70.00       70.00       70.00       70.00       70.00       70.00       70.00       70.00       70.00    
  11  -1000.0       70.00       70.00       70.00       70.00       70.00       70.00       70.00       70.00       70.00    
        70.00       70.00       70.00       70.00       70.00       70.00       70.00       70.00       70.00       70.00    
        70.00       70.00       70.00       70.00       70.00       70.00       70.00       70.00       70.00       70.00    
        70.00       70.00       70.00       70.00       70.00       70.00       70.00       70.00       70.00       70.00    
        70.00       70.00       70.00       70.00       70.00       70.00       70.00       70.00       70.00       70.00    
  12  -1000.0       70.00       70.00       70.00       70.00       70.00       70.00       70.00       70.00       70.00    
        70.00       70.00       70.00       70.00       70.00       70.00       70.00       70.00       70.00       70.00    
        70.00       70.00       70.00       70.00       70.00       70.00       70.00       70.00       70.00       70.00    
        70.00       70.00       70.00       70.00       70.00       70.00       70.00       70.00       70.00       70.00    
        70.00       70.00       70.00       70.00       70.00       70.00       70.00       70.00       70.00       70.00    
  13  -1000.0       70.00       70.00       70.00       70.00       70.00       70.00       70.00       70.00       70.00    
        70.00       70.00       70.00       70.00       69.99       70.00       70.00       70.00       70.00       70.00    
        70.00       70.00       70.00       70.00       70.00       70.00       70.00       70.00       70.00       70.00    
        70.00       70.00       70.00       70.00       70.00       70.00       70.00       70.00       70.00       70.00    
        70.00       70.00       70.00       70.00       70.00       70.00       70.00       70.00       70.00       70.00    
  14  -1000.0       70.00       70.00       70.00       70.00       70.00       70.00       70.00       70.00       70.00    
        70.00       70.00       70.00       70.00       70.00       70.00       70.00       70.00       70.00       70.00    
        70.00       70.00       70.00       70.00       70.00       70.00       70.00       70.00       70.00       70.00    
        70.00       70.00       70.00       70.00       70.00       70.00       70.00       70.00       70.00       70.00    
        70.00       70.00       70.00       70.00       70.00       70.00       70.00       70.00       70.00       70.00    
  15  -1000.0       70.00       70.00       70.00       70.00       70.00       70.00       70.00       70.00       70.00    
        70.00       70.00       70.00       70.00       70.00       70.00       70.00       70.00       70.00       70.00    
        70.00       70.00       70.00       70.00       70.00       70.00       70.00       70.00       70.00       70.00    
        70.00       70.00       70.00       70.00       70.00       70.00       70.00       70.00       70.00       70.00    
        70.00       70.00       70.00       70.00       70.00       70.00       70.00       70.00       70.00       70.00    
  16  -1000.0       70.00       70.00       70.00       70.00       70.00       70.00       70.00       70.00       70.00    
        70.00       70.00       70.00       70.00       70.00       70.00       70.00       70.00       70.00       70.00    
        70.00       70.00       70.00       70.00       70.00       70.00       70.00       70.00       70.00       70.00    
        70.00       70.00       70.00       70.00       70.00       70.00       70.00       70.00       70.00       70.00    
        70.00       70.00       70.00       70.00       70.00       70.00       70.00       70.00       70.00       70.00    
  17  -1000.0       70.00       70.00       70.00       70.00       70.00       70.00       70.00       70.00       70.00    
        70.00       70.00       70.00       70.00       70.00       70.00       70.00       70.00       70.00       70.00    
        70.00       70.00       70.00       70.00       70.00       70.00       70.00       70.00       70.00       70.00    
        70.00       70.00       70.00       70.00       70.00       70.00       70.00       70.00       70.00       70.00    
        70.00       70.00       70.00       70.00       70.00       70.00       70.00       70.00       70.00       70.00    
  18  -1000.0       70.00       70.00       70.00       70.00       70.00       70.00       70.00       70.00       70.00    
        70.00       70.00       70.00       70.00       70.00       70.00       70.00       70.00       70.00       70.00    
        70.00       70.00       70.00       70.00       70.00       70.00       70.00       70.00       70.00       70.00    
        70.00       70.00       70.00       70.00       70.00       70.00       70.00       70.00       70.00       70.00    
        70.00       70.00       70.00       70.00       70.00       70.00       70.00       70.00       70.00       70.00    
  19  -1000.0       70.00       70.00       70.00       70.00       70.00       70.00       70.00       70.00       70.00    
        70.00       70.00       70.00       70.00       70.00       70.00       70.00       70.00       70.00       70.00    
        70.00       70.00       70.00       70.00       70.00       70.00       70.00       70.00       70.00       70.00    
        70.00       70.00       70.00       70.00       70.00       70.00       70.00       70.00       70.00       70.00    
        70.00       70.00       70.00       70.00       70.00       70.00       70.00       70.00       70.00       70.00    
  20  -1000.0       70.00       70.00       70.00       70.00       70.00       70.00       70.00       70.00       70.00    
        70.00       70.00       70.00       70.00       70.00       70.00       70.00       70.00       70.00       70.00    
        70.00       70.00       70.00       70.00       70.00       70.00       70.00       70.00       70.00       70.00    
        70.00       70.00       70.00       70.00       70.00       70.00       70.00       70.00       70.00       70.00    
        70.00       70.00       70.00       70.00       70.00       70.00       70.00       70.00       70.00       70.00    
  21  -1000.0       70.00       70.00       70.00       70.00       70.00       70.00       70.00       70.00       70.00    
        70.00       70.00       70.00       70.00       70.00       70.00       70.00       70.00       70.00       70.00    
        70.00       70.00       70.00       70.00       70.00       70.00       70.00       70.00       70.00       70.00    
        70.00       70.00       70.00       70.00       70.00       70.00       70.00       70.00       70.00       70.00    
        70.00       70.00       70.00       70.00       70.00       70.00       70.00       70.00       70.00       70.00    
  22  -1000.0       70.00       70.00       70.00       70.00       70.00       70.00       70.00       70.00       70.00    
        70.00       70.00       70.00       70.00       70.00       70.00       70.00       70.00       70.00       70.00    
        70.00       70.00       70.00       70.00       70.00       70.00       70.00       70.00       70.00       70.00    
        70.00       70.00       70.00       70.00       70.00       70.00       70.00       70.00       70.00       70.00    
        70.00       70.00       70.00       70.00       70.00       70.00       70.00       70.00       70.00       70.00    
  23  -1000.0       70.00       70.00       70.00       70.00       70.00       70.00       70.00       70.00       70.00    
        70.00       70.00       70.00       70.00       70.00       70.00       70.00       70.00       70.00       70.00    
        70.00       70.00       70.00       70.00       70.00       70.00       70.00       70.00       70.00       70.00    
        70.00       70.00       70.00       70.00       70.00       70.00       70.00       70.00       70.00       70.00    
        70.00       70.00       70.00       70.00       70.00       70.00       70.00       70.00       70.00       70.00    
  24  -1000.0       70.00       70.00       70.00       70.00       70.00       70.00       70.00       70.00       70.00    
        70.00       70.00       70.00       70.00       70.00       70.00       70.00       70.00       70.00       70.00    
        70.00       70.00       70.00       70.00       70.00       70.00       70.00       70.00       70.00       70.00    
        70.00       70.00       70.00       70.00       70.00       70.00       70.00       70.00       70.00       70.00    
        70.00       70.00       70.00       70.00       70.00       70.00       70.00       70.00       70.00       70.00    
  25  -1000.0       70.04       70.04       70.04       70.04       70.04       70.04       70.04       70.04       70.04    
        70.04       70.04       70.04       70.04       70.04       70.04       70.04       70.04       70.04       70.04    
        70.04       70.04       70.04       70.04       70.04       70.04       70.04       70.04       70.04       70.04    
        70.04       70.04       70.04       70.04       70.04       70.04       70.04       70.04       70.04       70.04    
        70.04       70.04       70.04       70.04       70.04       70.04       70.04       70.04       70.04       70.00    
  26  -1000.0       70.00       70.00       70.00       70.00       70.00       70.00       70.00       70.00       70.00    
        70.00       70.00       70.00       70.00       70.00       70.00       70.00       70.00       70.00       70.00    
        70.00       70.00       70.00       70.00       70.00       70.00       70.00       70.00       70.00       70.00    
        70.00       70.00       70.00       70.00       70.00       70.00       70.00       70.00       70.00       70.00    
        70.00       70.00       70.00       70.00       70.00       70.00       70.00       70.00       70.00       70.00    
  27  -1000.0       70.00       70.00       70.00       70.00       70.00       70.00       70.00       70.00       70.00    
        70.00       70.00       70.00       70.00       70.00       70.00       70.00       70.00       70.00       70.00    
        70.00       70.00       70.00       70.00       70.00       70.00       70.00       70.00       70.00       70.00    
        70.00       70.00       70.00       70.00       70.00       70.00       70.00       70.00       70.00       70.00    
        70.00       70.00       70.00       70.00       70.00       70.00       70.00       70.00       70.00       70.00    
  28  -1000.0       70.00       70.00       70.00       70.00       70.00       70.00       70.00       70.00       70.00    
        70.00       70.00       70.00       70.00       70.00       70.00       70.00       70.00       70.00       70.00    
        70.00       70.00       70.00       70.00       70.00       70.00       70.00       70.00       70.00       70.00    
        70.00       70.00       70.00       70.00       70.00       70.00       70.00       70.00       70.00       70.00    
        70.00       70.00       70.00       70.00       70.00       70.00       70.00       70.00       70.00       70.00    
  29  -1000.0       70.00       70.00       70.00       70.00       70.00       70.00       70.00       70.00       70.00    
        70.00       70.00       70.00       70.00       70.00       70.00       70.00       70.00       70.00       70.00    
        70.00       70.00       70.00       70.00       70.00       70.00       70.00       70.00       70.00       70.00    
        70.00       70.00       70.00       70.00       70.00       70.00       70.00       70.00       70.00       70.00    
        70.00       70.00       70.00       70.00       70.00       70.00       70.00       70.00       70.00       70.00    
  30  -1000.0       70.00       70.00       70.00       70.00       70.00       70.00       70.00       70.00       70.00    
        70.00       70.00       70.00       70.00       70.00       70.00       70.00       70.00       70.00       70.00    
        70.00       70.00       70.00       70.00       70.00       70.00       70.00       70.00       70.00       70.00    
        70.00       70.00       70.00       70.00       70.00       70.00       70.00       70.00       70.00       70.00    
        70.00       70.00       70.00       70.00       70.00       70.00       70.00       70.00       70.00       70.00    
  31  -1000.0       70.00       70.00       70.00       70.00       70.00       70.00       70.00       70.00       70.00    
        70.00       70.00       70.00       70.00       70.00       70.00       70.00       70.00       70.00       70.00    
        70.00       70.00       70.00       70.00       70.00       70.00       70.00       70.00       70.00       70.00    
        70.00       70.00       70.00       70.00       70.00       70.00       70.00       70.00       70.00       70.00    
        70.00       70.00       70.00       70.00       70.00       70.00       70.00       70.00       70.00       70.00    
  32  -1000.0       70.00       70.00       70.00       70.00       70.00       70.00       70.00       70.00       70.00    
        70.00       70.00       70.00       70.00       70.00       70.00       70.00       70.00       70.00       70.00    
        70.00       70.00       70.00       70.00       70.00       70.00       70.00       70.00       70.00       70.00    
        70.00       70.00       70.00       70.00       70.00       70.00       70.00       70.00       70.00       70.00    
        70.00       70.00       70.00       70.00       70.00       70.00       70.00       70.00       70.00       70.00    
  33  -1000.0       70.00       70.00       70.00       70.00       70.00       70.00       70.00       70.00       70.00    
        70.00       70.00       70.00       70.00       70.00       70.00       70.00       70.00       70.00       70.00    
        70.00       70.00       70.00       70.00       70.00       70.00       70.00       70.00       70.00       70.00    
        70.00       70.00       70.00       70.00       70.00       70.00       70.00       70.00       70.00       70.00    
        70.00       70.00       70.00       70.00       70.00       70.00       70.00       70.00       70.00       70.00    
  34  -1000.0       70.00       70.00       70.00       70.00       70.00       70.00       70.00       70.00       70.00    
        70.00       70.00       70.00       70.00       70.00       70.00       70.00       70.00       70.00       70.00    
        70.00       70.00       70.00       70.00       70.00       70.00       70.00       70.00       70.00       70.00    
        70.00       70.00       70.00       70.00       70.00       70.00       70.00       70.00       70.00       70.00    
        70.00       70.00       70.00       70.00       70.00       70.00       70.00       70.00       70.00       70.00    
  35  -1000.0       70.00       70.00       70.00       70.00       70.00       70.00       70.00       70.00       70.00    
        70.00       70.00       70.00       70.00       70.00       70.00       70.00       70.00       70.00       70.00    
        70.00       70.00       70.00       70.00       70.00       70.00       70.00       70.00       70.00       70.00    
        70.00       70.00       70.00       70.00       70.00       70.00       70.00       70.00       70.00       70.00    
        70.00       70.00       70.00       70.00       70.00       70.00       70.00       70.00       70.00       70.00    
  36  -1000.0       70.00       70.00       70.00       70.00       70.00       70.00       70.00       70.00       70.00    
        70.00       70.00       70.00       70.00       70.00       70.00       70.00       70.00       70.00       70.00    
        70.00       70.00       70.00       70.00       70.00       70.00       70.00       70.00       70.00       70.00    
        70.00       70.00       70.00       70.00       70.00       70.00       70.00       70.00       70.00       70.00    
        70.00       70.00       70.00       70.00       70.00       70.00       70.00       70.00       70.00       70.00    
  37  -1000.0       70.00       70.00       70.00       70.00       70.00       70.00       70.00       70.00       70.00    
        70.00       70.00       70.00       70.00       70.00       70.00       70.00       70.00       70.00       70.00    
        70.00       70.00       70.00       70.00       70.00       70.00       70.00       70.00       70.00       70.00    
        70.00       70.00       70.00       70.00       70.00       70.00       70.00       70.00       70.00       70.00    
        70.00       70.00       70.00       70.00       70.00       70.00       70.00       70.00       70.00       70.00    
  38  -1000.0       70.00       70.00       70.00       70.00       70.00       70.00       70.00       70.00       70.00    
        70.00       70.00       70.00       70.00       70.00       70.00       70.00       70.00       70.00       70.00    
        70.00       70.00       70.00       70.00       70.00       70.00       70.00       70.00       70.00       70.00    
        70.00       70.00       70.00       70.00       70.00       70.00       70.00       70.00       70.00       70.00    
        70.00       70.00       70.00       70.00       70.00       70.00       70.00       70.00       70.00       70.00    
  39  -1000.0       70.00       70.00       70.00       70.00       70.00       70.00       70.00       70.00       70.00    
        70.00       70.00       70.00       70.00       70.00       70.00       70.00       70.00       70.00       70.00    
        70.00       70.00       70.00       70.00       70.00       70.00       70.00       70.00       70.00       70.00    
        70.00       70.00       70.00       70.00       70.00       70.00       70.00       70.00       70.00       70.00    
        70.00       70.00       70.00       70.00       70.00       70.00       70.00       70.00       70.00       70.00    
  40  -1000.0       70.00       70.00       70.00       70.00       70.00       70.00       70.00       70.00       70.00    
        70.00       70.00       70.00       70.00       70.00       70.00       70.00       70.00       70.00       70.00    
        70.00       70.00       70.00       70.00       70.00       70.00       70.00       70.00       70.00       70.00    
        70.00       70.00       70.00       70.00       70.00       70.00       70.00       70.00       70.00       70.00    
        70.00       70.00       70.00       70.00       70.00       70.00       70.00       70.00       70.00       70.00    
  41  -1000.0       70.00       70.00       70.00       70.00       70.00       70.00       70.00       70.00       70.00    
        70.00       70.00       70.00       70.00       70.00       70.00       70.00       70.00       70.00       70.00    
        70.00       70.00       70.00       70.00       70.00       70.00       70.00       70.00       70.00       70.00    
        70.00       70.00       70.00       70.00       70.00       70.00       70.00       70.00       70.00       70.00    
        70.00       70.00       70.00       70.00       70.00       70.00       70.00       70.00       70.00       70.00    
  42  -1000.0       70.00       70.00       70.00       70.00       70.00       70.00       70.00       70.00       70.00    
        70.00       70.00       70.00       70.00       70.00       70.00       70.00       70.00       70.00       70.00    
        70.00       70.00       70.00       70.00       70.00       70.00       70.00       70.00       70.00       70.00    
        70.00       70.00       70.00       70.00       70.00       70.00       70.00       70.00       70.00       70.00    
        70.00       70.00       70.00       70.00       70.00       70.00       70.00       70.00       70.00       70.00    
  43  -1000.0       70.00       70.00       70.00       70.00       70.00       70.00       70.00       70.00       70.00    
        70.00       70.00       70.00       70.00       70.00       70.00       70.00       70.00       70.00       70.00    
        70.00       70.00       70.00       70.00       70.00       70.00       70.00       70.00       70.00       70.00    
        70.00       70.00       70.00       70.00       70.00       70.00       70.00       70.00       70.00       70.00    
        70.00       70.00       70.00       70.00       70.00       70.00       70.00       70.00       70.00       70.00    
  44  -1000.0       70.00       70.00       70.00       70.00       70.00       70.00       70.00       70.00       70.00    
        70.00       70.00       70.00       70.00       70.00       70.00       70.00       70.00       70.00       70.00    
        70.00       70.00       70.00       70.00       70.00       70.00       70.00       70.00       70.00       70.00    
        70.00       70.00       70.00       70.00       70.00       70.00       70.00       70.00       70.00       70.00    
        70.00       70.00       70.00       70.00       70.00       70.00       70.00       70.00       70.00       70.00    
  45  -1000.0       70.00       70.00       70.00       70.00       70.00       70.00       70.00       70.00       70.00    
        70.00       70.00       70.00       70.00       70.00       70.00       70.00       70.00       70.00       70.00    
        70.00       70.00       70.00       70.00       70.00       70.00       70.00       70.00       70.00       70.00    
        70.00       70.00       70.00       70.00       70.00       70.00       70.00       70.00       70.00       70.00    
        70.00       70.00       70.00       70.00       70.00       70.00       70.00       70.00       70.00       70.00    
  46  -1000.0     -1000.0       70.00       70.00       70.00       70.00       70.00       70.00       70.00       70.00    
        70.00       70.00       70.00       70.00       70.00       70.00       70.00       70.00       70.00       70.00    
        70.00       70.00       70.00       70.00       70.00       70.00       70.00       70.00       70.00       70.00    
        70.00       70.00       70.00       70.00       70.00       70.00       70.00       70.00       70.00       70.00    
        70.00       70.00       70.00       70.00       70.00       70.00       70.00       70.00       70.00       70.00    
  47  -1000.0     -1000.0     -1000.0       70.00       70.00       70.00       70.00       70.00       70.00       70.00    
        70.00       70.00       70.00       70.00       70.00       70.00       70.00       70.00       70.00       70.00    
        70.00       70.00       70.00       70.00       70.00       70.00       70.00       70.00       70.00       70.00    
        70.00       70.00       70.00       70.00       70.00       70.00       70.00       70.00       70.00       70.00    
        70.00       70.00       70.00       70.00       70.00       70.00       70.00       70.00       70.00       70.00    
  48  -1000.0     -1000.0     -1000.0     -1000.0       70.00       70.00       70.00       70.00       70.00       70.00    
        70.00       70.00       70.00       70.00       70.00       70.00       70.00       70.00       70.00       70.00    
        70.00       70.00       70.00       70.00       70.00       70.00       70.00       70.00       70.00       70.00    
        70.00       70.00       70.00       70.00       70.00       70.00       70.00       70.00       70.00       70.00    
        70.00       70.00       70.00       70.00       70.00       70.00       70.00       70.00       70.00       70.00    
  49  -1000.0     -1000.0     -1000.0     -1000.0     -1000.0       70.00       70.00       70.00       70.00       70.00    
        70.00       70.00       70.00       70.00       70.00       70.00       70.00       70.00       70.00       70.00    
        70.00       70.00       70.00       70.00       70.00       70.00       70.00       70.00       70.00       70.00    
        70.00       70.00       70.00       70.00       70.00       70.00       70.00       70.00       70.00       70.00    
        70.00       70.00       70.00       70.00       70.00       70.00       70.00       70.00       70.00       70.00    
  50  -1000.0     -1000.0     -1000.0     -1000.0     -1000.0     -1000.0     -1000.0     -1000.0     -1000.0     -1000.0    
      -1000.0     -1000.0     -1000.0     -1000.0     -1000.0     -1000.0     -1000.0     -1000.0     -1000.0     -1000.0    
      -1000.0     -1000.0     -1000.0     -1000.0     -1000.0     -1000.0     -1000.0     -1000.0     -1000.0     -1000.0    
      -1000.0     -1000.0     -1000.0     -1000.0     -1000.0     -1000.0     -1000.0     -1000.0     -1000.0     -1000.0    
      -1000.0     -1000.0     -1000.0     -1000.0     -1000.0     -1000.0     -1000.0     -1000.0     -1000.0       70.00    
1
              HEAD IN LAYER   2 AT END OF TIME STEP   1 IN STRESS PERIOD    1
  ---------------------------------------------------------------------------

            1           2           3           4           5           6           7           8           9          10
           11          12          13          14          15          16          17          18          19          20
           21          22          23          24          25          26          27          28          29          30
           31          32          33          34          35          36          37          38          39          40
           41          42          43          44          45          46          47          48          49          50
 ........................................................................................................................
   1  -1000.0     -1000.0     -1000.0     -1000.0     -1000.0     -1000.0     -1000.0     -1000.0     -1000.0     -1000.0    
      -1000.0     -1000.0     -1000.0     -1000.0     -1000.0     -1000.0     -1000.0     -1000.0     -1000.0     -1000.0    
      -1000.0     -1000.0     -1000.0     -1000.0     -1000.0     -1000.0     -1000.0     -1000.0     -1000.0     -1000.0    
      -1000.0     -1000.0     -1000.0     -1000.0     -1000.0     -1000.0     -1000.0     -1000.0     -1000.0     -1000.0    
      -1000.0     -1000.0     -1000.0     -1000.0     -1000.0     -1000.0     -1000.0     -1000.0     -1000.0       70.00    
   2  -1000.0     -1000.0     -1000.0     -1000.0     -1000.0     -1000.0     -1000.0       70.00       70.00       70.00    
        70.00       70.00       70.00       70.00       70.00       70.00       70.00       70.00       70.00       70.00    
        69.99       69.99       69.98       69.98       69.97       69.97       69.96       69.96       69.95       69.95    
        69.95       69.94       69.94       69.94       69.94       69.94       69.94       69.94       69.94       69.94    
        69.94       69.95       69.95       69.96       69.96       69.97       69.98       69.98       69.99       70.00    
   3  -1000.0     -1000.0     -1000.0     -1000.0     -1000.0     -1000.0       70.00       70.00       70.00       70.00    
        70.00       70.00       70.00       70.00       70.00       70.00       70.00       70.00       70.00       70.00    
        69.99       69.99       69.98       69.98       69.97       69.97       69.96       69.96       69.95       69.95    
        69.95       69.94       69.94       69.94       69.94       69.93       69.93       69.94       69.94       69.94    
        69.94       69.95       69.95       69.96       69.96       69.97       69.98       69.98       69.99       70.00    
   4  -1000.0     -1000.0     -1000.0     -1000.0     -1000.0       70.00       70.00       70.00       70.00       70.00    
        70.00       70.00       70.00       70.00       70.00       70.00       70.00       70.00       70.00       70.00    
        69.99       69.99       69.98       69.98       69.97       69.97       69.96       69.96       69.95       69.95    
        69.94       69.94       69.94       69.93       69.93       69.93       69.93       69.93       69.93       69.94    
        69.94       69.94       69.95       69.96       69.96       69.97       69.98       69.98       69.99       70.00    
   5  -1000.0     -1000.0     -1000.0     -1000.0       70.00       70.00       70.00       70.00       70.00       70.00    
        70.00       70.00       70.00       70.00       70.00       70.00       70.00       70.00       70.00       70.00    
        69.99       69.99       69.98       69.98       69.97       69.97       69.96       69.96       69.95       69.95    
        69.94       69.94       69.93       69.93       69.93       69.93       69.93       69.93       69.93       69.93    
        69.94       69.94       69.95       69.95       69.96       69.97       69.97       69.98       69.99       70.00    
   6  -1000.0     -1000.0     -1000.0       70.00       70.00       70.00       70.00       70.00       70.00       70.00    
        70.00       70.00       70.00       70.00       70.00       70.00       70.00       70.00       70.00       70.00    
        69.99       69.99       69.98       69.98       69.97       69.96       69.96       69.95       69.95       69.94    
        69.94       69.93       69.93       69.93       69.92       69.92       69.92       69.92       69.92       69.93    
        69.93       69.93       69.94       69.95       69.95       69.96       69.97       69.98       69.99       70.00    
   7  -1000.0     -1000.0       70.00       70.00       70.00       70.00       70.00       70.00       70.00       70.00    
        70.00       70.00       70.00       70.00       70.00       70.00       70.00       70.00       70.00       70.00    
        69.99       69.99       69.98       69.97       69.97       69.96       69.95       69.95       69.94       69.94    
        69.93       69.93       69.92       69.92       69.92       69.91       69.91       69.91       69.91       69.92    
        69.92       69.93       69.93       69.94       69.95       69.96       69.97       69.98       69.99       70.00    
   8  -1000.0       70.00       70.00       70.00       70.00       70.00       70.00       70.00       70.00       70.00    
        70.00       70.00       70.00       70.00       70.00       70.00       70.00       70.00       70.00       70.00    
        69.99       69.99       69.98       69.97       69.97       69.96       69.95       69.94       69.94       69.93    
        69.93       69.92       69.91       69.91       69.91       69.90       69.90       69.90       69.90       69.91    
        69.91       69.92       69.93       69.93       69.94       69.95       69.96       69.98       69.99       70.00    
   9  -1000.0       70.00       70.00       70.00       70.00       70.00       70.00       70.00       70.00       70.00    
        70.00       70.00       70.00       70.00       70.00       70.00       70.00       70.00       70.00       70.00    
        69.99       69.99       69.98       69.97       69.96       69.95       69.95       69.94       69.93       69.92    
        69.92       69.91       69.90       69.90       69.89       69.89       69.89       69.89       69.89       69.90    
        69.90       69.91       69.92       69.93       69.94       69.95       69.96       69.97       69.99       70.00    
  10  -1000.0       70.00       70.00       70.00       70.00       70.00       70.00       70.00       70.00       70.00    
        70.00       70.00       70.00       70.00       70.00       70.00       70.00       70.00       70.00       70.00    
        69.99       69.98       69.98       69.97       69.96       69.95       69.94       69.93       69.93       69.92    
        69.91       69.90       69.89       69.89       69.88       69.88       69.87       69.87       69.88       69.88    
        69.89       69.89       69.90       69.91       69.93       69.94       69.95       69.97       69.98       70.00    
  11  -1000.0       70.00       70.00       70.00       70.00       70.00       70.00       70.00       70.00       70.00    
        70.00       70.00       70.00       70.00       70.00       70.00       70.00       70.00       70.00       70.00    
        69.99       69.98       69.97       69.97       69.96       69.95       69.94       69.93       69.92       69.91    
        69.90       69.89       69.88       69.87       69.87       69.86       69.86       69.86       69.86       69.86    
        69.87       69.88       69.89       69.90       69.92       69.93       69.95       69.97       69.98       70.00    
  12  -1000.0       70.00       70.00       70.00       70.00       70.00       70.00       70.00       70.00       70.00    
        70.00       70.00       70.00       70.00       70.00       70.00       70.00       70.00       70.00       70.00    
        69.99       69.98       69.97       69.96       69.95       69.94       69.93       69.92       69.91       69.90    
        69.89       69.88       69.86       69.85       69.85       69.84       69.83       69.83       69.83       69.84    
        69.85       69.86       69.87       69.89       69.90       69.92       69.94       69.96       69.98       70.00    
  13  -1000.0       70.00       70.00       70.00       70.00       70.00       70.00       70.00       70.00       70.00    
        70.00       70.00       70.00       70.00       69.99       70.00       70.00       70.00       70.00       70.00    
        69.99       69.98       69.97       69.96       69.95       69.94       69.93       69.91       69.90       69.89    
        69.87       69.86       69.85       69.84       69.82       69.82       69.81       69.81       69.81       69.81    
        69.82       69.84       69.85       69.87       69.89       69.91       69.93       69.95       69.98       70.00    
  14  -1000.0       70.00       70.00       70.00       70.00       70.00       70.00       70.00       70.00       70.00    
        70.00       70.00       70.00       70.00       70.00       70.00       70.00       70.00       70.00       70.00    
        69.99       69.98       69.97       69.96       69.94       69.93       69.92       69.91       69.89       69.88    
        69.86       69.84       69.83       69.81       69.80       69.79       69.78       69.77       69.78       69.78    
        69.79       69.81       69.83       69.85       69.87       69.90       69.92       69.95       69.97       70.00    
  15  -1000.0       70.00       70.00       70.00       70.00       70.00       70.00       70.00       70.00       70.00    
        70.00       70.00       70.00       70.00       70.00       70.00       70.00       70.00       70.00       70.00    
        69.99       69.98       69.97       69.95       69.94       69.93       69.91       69.90       69.88       69.86    
        69.85       69.83       69.81       69.79       69.77       69.75       69.74       69.74       69.74       69.74    
        69.76       69.78       69.80       69.83       69.85       69.88       69.91       69.94       69.97       70.00    
  16  -1000.0       70.00       70.00       70.00       70.00       70.00       70.00       70.00       70.00       70.00    
        70.00       70.00       70.00       70.00       70.00       70.00       70.00       70.00       70.00       70.00    
        69.99       69.98       69.96       69.95       69.94       69.92       69.91       69.89       69.87       69.85    
        69.83       69.81       69.78       69.76       69.74       69.72       69.70       69.69       69.69       69.70    
        69.72       69.74       69.77       69.80       69.83       69.87       69.90       69.93       69.97       70.00    
  17  -1000.0       70.00       70.00       70.00       70.00       70.00       70.00       70.00       70.00       70.00    
        70.00       70.00       70.00       70.00       70.00       70.00       70.00       70.00       70.00       70.00    
        69.99       69.97       69.96       69.95       69.93       69.92       69.90       69.88       69.86       69.84    
        69.82       69.79       69.76       69.73       69.70       69.68       69.65       69.64       69.64       69.65    
        69.67       69.70       69.74       69.77       69.81       69.85       69.89       69.93       69.96       70.00    
  18  -1000.0       70.00       70.00       70.00       70.00       70.00       70.00       70.00       70.00       70.00    
        70.00       70.00       70.00       70.00       70.00       70.00       70.00       70.00       70.00       70.00    
        69.99       69.97       69.96       69.95       69.93       69.91       69.90       69.88       69.85       69.83    
        69.80       69.77       69.74       69.70       69.67       69.63       69.60       69.58       69.58       69.59    
        69.62       69.66       69.70       69.75       69.79       69.84       69.88       69.92       69.96       70.00    
  19  -1000.0       70.00       70.00       70.00       70.00       70.00       70.00       70.00       70.00       70.00    
        70.00       70.00       70.00       70.00       70.00       70.00       70.00       70.00       70.00       70.00    
        69.99       69.97       69.96       69.94       69.93       69.91       69.89       69.87       69.85       69.82    
        69.79       69.75       69.72       69.67       69.63       69.59       69.55       69.52       69.51       69.52    
        69.56       69.61       69.67       69.72       69.77       69.82       69.87       69.91       69.96       70.00    
  20  -1000.0       70.00       70.00       70.00       70.00       70.00       70.00       70.00       70.00       70.00    
        70.00       70.00       70.00       70.00       70.00       70.00       70.00       70.00       70.00       70.00    
        69.99       69.97       69.96       69.94       69.93       69.91       69.89       69.87       69.84       69.81    
        69.78       69.74       69.70       69.65       69.60       69.54       69.49       69.45       69.43       69.45    
        69.51       69.57       69.63       69.70       69.76       69.81       69.86       69.91       69.96       70.00    
  21  -1000.0       70.00       70.00       70.00       70.00       70.00       70.00       70.00       70.00       70.00    
        70.00       70.00       70.00       70.00       70.00       70.00       70.00       70.00       70.00       70.00    
        69.99       69.97       69.96       69.94       69.93       69.91       69.89       69.86       69.84       69.81    
        69.77       69.73       69.69       69.64       69.58       69.51       69.44       69.38       69.35       69.39    
        69.46       69.54       69.61       69.68       69.75       69.80       69.86       69.91       69.95       70.00    
  22  -1000.0       70.00       70.00       70.00       70.00       70.00       70.00       70.00       70.00       70.00    
        70.00       70.00       70.00       70.00       70.00       70.00       70.00       70.00       70.00       70.00    
        69.99       69.97       69.96       69.94       69.93       69.91       69.89       69.86       69.84       69.81    
        69.77       69.73       69.68       69.63       69.57       69.50       69.42       69.35       69.30       69.36    
        69.44       69.53       69.60       69.68       69.74       69.80       69.85       69.91       69.95       70.00    
  23  -1000.0       70.00       70.00       70.00       70.00       70.00       70.00       70.00       70.00       70.00    
        70.00       70.00       70.00       70.00       70.00       70.00       70.00       70.00       70.00       70.00    
        69.99       69.97       69.96       69.94       69.93       69.91       69.89       69.86       69.84       69.81    
        69.77       69.73       69.69       69.64       69.58       69.51       69.45       69.38       69.35       69.39    
        69.46       69.54       69.61       69.68       69.75       69.80       69.86       69.91       69.95       70.00    
  24  -1000.0       70.00       70.00       70.00       70.00       70.00       70.00       70.00       70.00       70.00    
        70.00       70.00       70.00       70.00       70.00       70.00       70.00       70.00       70.00       70.00    
        69.99       69.98       69.96       69.95       69.93       69.91       69.89       69.87       69.84       69.81    
        69.78       69.74       69.70       69.65       69.60       69.55       69.49       69.45       69.43       69.46    
        69.51       69.57       69.64       69.70       69.76       69.81       69.86       69.91       69.96       70.00    
  25  -1000.0       70.04       70.04       70.04       70.04       70.04       70.04       70.04       70.04       70.04    
        70.04       70.04       70.04       70.04       70.04       70.04       70.04       70.04       70.04       70.04    
        70.00       69.98       69.97       69.95       69.93       69.91       69.90       69.87       69.85       69.82    
        69.79       69.76       69.72       69.68       69.64       69.59       69.55       69.52       69.51       69.53    
        69.57       69.62       69.67       69.72       69.78       69.83       69.87       69.92       69.96       70.00    
  26  -1000.0       70.00       70.00       70.00       70.00       70.00       70.00       70.00       70.00       70.00    
        70.00       70.00       70.00       70.00       70.00       70.00       70.00       70.00       70.00       70.00    
        69.99       69.98       69.96       69.95       69.93       69.92       69.90       69.88       69.86       69.83    
        69.80       69.77       69.74       69.71       69.67       69.64       69.61       69.59       69.58       69.59    
        69.62       69.66       69.70       69.75       69.80       69.84       69.88       69.92       69.96       70.00    
  27  -1000.0       70.00       70.00       70.00       70.00       70.00       70.00       70.00       70.00       70.00    
        70.00       70.00       70.00       70.00       70.00       70.00       70.00       70.00       70.00       70.00    
        69.99       69.98       69.96       69.95       69.94       69.92       69.90       69.89       69.86       69.84    
        69.82       69.79       69.76       69.74       69.71       69.68       69.66       69.64       69.64       69.65    
        69.67       69.70       69.74       69.78       69.82       69.85       69.89       69.93       69.96       70.00    
  28  -1000.0       70.00       70.00       70.00       70.00       70.00       70.00       70.00       70.00       70.00    
        70.00       70.00       70.00       70.00       70.00       70.00       70.00       70.00       70.00       70.00    
        69.99       69.98       69.97       69.95       69.94       69.93       69.91       69.89       69.87       69.85    
        69.83       69.81       69.79       69.76       69.74       69.72       69.71       69.70       69.69       69.70    
        69.72       69.74       69.77       69.80       69.84       69.87       69.90       69.94       69.97       70.00    
  29  -1000.0       70.00       70.00       70.00       70.00       70.00       70.00       70.00       70.00       70.00    
        70.00       70.00       70.00       70.00       70.00       70.00       70.00       70.00       70.00       70.00    
        69.99       69.98       69.97       69.96       69.94       69.93       69.92       69.90       69.88       69.87    
        69.85       69.83       69.81       69.79       69.77       69.76       69.75       69.74       69.74       69.75    
        69.76       69.78       69.80       69.83       69.86       69.88       69.91       69.94       69.97       70.00    
  30  -1000.0       70.00       70.00       70.00       70.00       70.00       70.00       70.00       70.00       70.00    
        70.00       70.00       70.00       70.00       70.00       70.00       70.00       70.00       70.00       70.00    
        69.99       69.98       69.97       69.96       69.95       69.94       69.92       69.91       69.89       69.88    
        69.86       69.85       69.83       69.82       69.80       69.79       69.78       69.78       69.78       69.79    
        69.80       69.81       69.83       69.85       69.88       69.90       69.92       69.95       69.97       70.00    
  31  -1000.0       70.00       70.00       70.00       70.00       70.00       70.00       70.00       70.00       70.00    
        70.00       70.00       70.00       70.00       70.00       70.00       70.00       70.00       70.00       70.00    
        69.99       69.98       69.97       69.96       69.95       69.94       69.93       69.92       69.90       69.89    
        69.88       69.87       69.85       69.84       69.83       69.82       69.81       69.81       69.81       69.82    
        69.83       69.84       69.85       69.87       69.89       69.91       69.93       69.96       69.98       70.00    
  32  -1000.0       70.00       70.00       70.00       70.00       70.00       70.00       70.00       70.00       70.00    
        70.00       70.00       70.00       70.00       70.00       70.00       70.00       70.00       70.00       70.00    
        69.99       69.98       69.97       69.96       69.96       69.95       69.94       69.92       69.91       69.90    
        69.89       69.88       69.87       69.86       69.85       69.85       69.84       69.84       69.84       69.84    
        69.85       69.86       69.88       69.89       69.91       69.92       69.94       69.96       69.98       70.00    
  33  -1000.0       70.00       70.00       70.00       70.00       70.00       70.00       70.00       70.00       70.00    
        70.00       70.00       70.00       70.00       70.00       70.00       70.00       70.00       70.00       70.00    
        69.99       69.98       69.98       69.97       69.96       69.95       69.94       69.93       69.92       69.91    
        69.90       69.89       69.89       69.88       69.87       69.87       69.86       69.86       69.86       69.87    
        69.87       69.88       69.89       69.91       69.92       69.93       69.95       69.97       69.98       70.00    
  34  -1000.0       70.00       70.00       70.00       70.00       70.00       70.00       70.00       70.00       70.00    
        70.00       70.00       70.00       70.00       70.00       70.00       70.00       70.00       70.00       70.00    
        69.99       69.99       69.98       69.97       69.96       69.96       69.95       69.94       69.93       69.92    
        69.92       69.91       69.90       69.89       69.89       69.88       69.88       69.88       69.88       69.89    
        69.89       69.90       69.91       69.92       69.93       69.94       69.96       69.97       69.99       70.00    
  35  -1000.0       70.00       70.00       70.00       70.00       70.00       70.00       70.00       70.00       70.00    
        70.00       70.00       70.00       70.00       70.00       70.00       70.00       70.00       70.00       70.00    
        69.99       69.99       69.98       69.97       69.97       69.96       69.95       69.95       69.94       69.93    
        69.93       69.92       69.91       69.91       69.90       69.90       69.90       69.90       69.90       69.90    
        69.91       69.91       69.92       69.93       69.94       69.95       69.96       69.98       69.99       70.00    
  36  -1000.0       70.00       70.00       70.00       70.00       70.00       70.00       70.00       70.00       70.00    
        70.00       70.00       70.00       70.00       70.00       70.00       70.00       70.00       70.00       70.00    
        69.99       69.99       69.98       69.98       69.97       69.96       69.96       69.95       69.95       69.94    
        69.93       69.93       69.92       69.92       69.92       69.91       69.91       69.91       69.91       69.92    
        69.92       69.93       69.93       69.94       69.95       69.96       69.97       69.98       69.99       70.00    
  37  -1000.0       70.00       70.00       70.00       70.00       70.00       70.00       70.00       70.00       70.00    
        70.00       70.00       70.00       70.00       70.00       70.00       70.00       70.00       70.00       70.00    
        69.99       69.99       69.98       69.98       69.97       69.97       69.96       69.96       69.95       69.95    
        69.94       69.94       69.93       69.93       69.93       69.93       69.92       69.93       69.93       69.93    
        69.93       69.94       69.94       69.95       69.96       69.96       69.97       69.98       69.99       70.00    
  38  -1000.0       70.00       70.00       70.00       70.00       70.00       70.00       70.00       70.00       70.00    
        70.00       70.00       70.00       70.00       70.00       70.00       70.00       70.00       70.00       70.00    
        70.00       69.99       69.99       69.98       69.98       69.97       69.97       69.96       69.96       69.95    
        69.95       69.95       69.94       69.94       69.94       69.94       69.94       69.94       69.94       69.94    
        69.94       69.95       69.95       69.96       69.96       69.97       69.98       69.98       69.99       70.00    
  39  -1000.0       70.00       70.00       70.00       70.00       70.00       70.00       70.00       70.00       70.00    
        70.00       70.00       70.00       70.00       70.00       70.00       70.00       70.00       70.00       70.00    
        70.00       69.99       69.99       69.98       69.98       69.97       69.97       69.97       69.96       69.96    
        69.95       69.95       69.95       69.95       69.95       69.94       69.94       69.94       69.95       69.95    
        69.95       69.95       69.96       69.96       69.97       69.97       69.98       69.99       69.99       70.00    
  40  -1000.0       70.00       70.00       70.00       70.00       70.00       70.00       70.00       70.00       70.00    
        70.00       70.00       70.00       70.00       70.00       70.00       70.00       70.00       70.00       70.00    
        70.00       69.99       69.99       69.98       69.98       69.98       69.97       69.97       69.97       69.96    
        69.96       69.96       69.96       69.95       69.95       69.95       69.95       69.95       69.95       69.95    
        69.96       69.96       69.96       69.97       69.97       69.98       69.98       69.99       69.99       70.00    
  41  -1000.0       70.00       70.00       70.00       70.00       70.00       70.00       70.00       70.00       70.00    
        70.00       70.00       70.00       70.00       70.00       70.00       70.00       70.00       70.00       70.00    
        70.00       69.99       69.99       69.99       69.98       69.98       69.98       69.97       69.97       69.97    
        69.96       69.96       69.96       69.96       69.96       69.96       69.96       69.96       69.96       69.96    
        69.96       69.96       69.97       69.97       69.98       69.98       69.98       69.99       69.99       70.00    
  42  -1000.0       70.00       70.00       70.00       70.00       70.00       70.00       70.00       70.00       70.00    
        70.00       70.00       70.00       70.00       70.00       70.00       70.00       70.00       70.00       70.00    
        70.00       69.99       69.99       69.99       69.98       69.98       69.98       69.98       69.97       69.97    
        69.97       69.97       69.96       69.96       69.96       69.96       69.96       69.96       69.96       69.96    
        69.97       69.97       69.97       69.98       69.98       69.98       69.99       69.99       70.00       70.00    
  43  -1000.0       70.00       70.00       70.00       70.00       70.00       70.00       70.00       70.00       70.00    
        70.00       70.00       70.00       70.00       70.00       70.00       70.00       70.00       70.00       70.00    
        70.00       69.99       69.99       69.99       69.99       69.98       69.98       69.98       69.98       69.97    
        69.97       69.97       69.97       69.97       69.97       69.97       69.97       69.97       69.97       69.97    
        69.97       69.97       69.98       69.98       69.98       69.98       69.99       69.99       70.00       70.00    
  44  -1000.0     -1000.0       70.00       70.00       70.00       70.00       70.00       70.00       70.00       70.00    
        70.00       70.00       70.00       70.00       70.00       70.00       70.00       70.00       70.00       70.00    
        70.00       69.99       69.99       69.99       69.99       69.98       69.98       69.98       69.98       69.98    
        69.97       69.97       69.97       69.97       69.97       69.97       69.97       69.97       69.97       69.97    
        69.97       69.98       69.98       69.98       69.98       69.99       69.99       69.99       70.00       70.00    
  45  -1000.0     -1000.0     -1000.0       70.00       70.00       70.00       70.00       70.00       70.00       70.00    
        70.00       70.00       70.00       70.00       70.00       70.00       70.00       70.00       70.00       70.00    
        70.00       70.00       69.99       69.99       69.99       69.99       69.98       69.98       69.98       69.98    
        69.98       69.97       69.97       69.97       69.97       69.97       69.97       69.97       69.97       69.97    
        69.98       69.98       69.98       69.98       69.98       69.99       69.99       69.99       70.00       70.00    
  46  -1000.0     -1000.0     -1000.0     -1000.0       70.00       70.00       70.00       70.00       70.00       70.00    
        70.00       70.00       70.00       70.00       70.00       70.00       70.00       70.00       70.00       70.00    
        70.00       70.00       69.99       69.99       69.99       69.99       69.98       69.98       69.98       69.98    
        69.98       69.98       69.98       69.98       69.97       69.97       69.97       69.98       69.98       69.98    
        69.98       69.98       69.98       69.98       69.99       69.99       69.99       69.99       70.00       70.00    
  47  -1000.0     -1000.0     -1000.0     -1000.0     -1000.0       70.00       70.00       70.00       70.00       70.00    
        70.00       70.00       70.00       70.00       70.00       70.00       70.00       70.00       70.00       70.00    
        70.00       70.00       69.99       69.99       69.99       69.99       69.99       69.98       69.98       69.98    
        69.98       69.98       69.98       69.98       69.98       69.98       69.98       69.98       69.98       69.98    
        69.98       69.98       69.98       69.98       69.99       69.99       69.99       69.99       70.00       70.00    
  48  -1000.0     -1000.0     -1000.0     -1000.0     -1000.0     -1000.0       70.00       70.00       70.00       70.00    
        70.00       70.00       70.00       70.00       70.00       70.00       70.00       70.00       70.00       70.00    
        70.00       70.00       69.99       69.99       69.99       69.99       69.99       69.98       69.98       69.98    
        69.98       69.98       69.98       69.98       69.98       69.98       69.98       69.98       69.98       69.98    
        69.98       69.98       69.98       69.99       69.99       69.99       69.99       69.99       70.00       70.00    
[...]

                              NUMBER OF TIME STEPS =     1

                               MULTIPLIER FOR DELT =     1.000

                            INITIAL TIME STEP SIZE =   1.000000    

 WELL NO.  LAYER   ROW   COL   STRESS RATE         
 --------------------------------------------------
      1      3     22     39      -1500.    
      2      1     13     15      -4500.    
      3      1     25     26       375.0    

      3 WELLS

 REUSING NON-PARAMETER RIVER REACHES FROM LAST STRESS PERIOD

     49 RIVER REACHES

 REUSING SURF FROM LAST STRESS PERIOD



            EVAPOTRANSPIRATION RATE
 READING ON UNIT   22 WITH FORMAT: (50E15.6)           

 REUSING EXDP FROM LAST STRESS PERIOD



                           RECHARGE
 READING ON UNIT   19 WITH FORMAT: (50E15.6)           
 
 SOLVING FOR HEAD 

 NO OUTPUT CONTROL FOR STRESS PERIOD   16   TIME STEP    1
1
  VOLUMETRIC BUDGET FOR ENTIRE MODEL AT END OF TIME STEP    1, STRESS PERIOD  16
  ------------------------------------------------------------------------------

     CUMULATIVE VOLUMES      L**3       RATES FOR THIS TIME STEP      L**3/T
     ------------------                 ------------------------

           IN:                                      IN:
           ---                                      ---
             STORAGE =       76215.4141               STORAGE =        4617.7803
       CONSTANT HEAD =       10482.1709         CONSTANT HEAD =         666.5982
               WELLS =        6000.0000                 WELLS =         375.0000
       RIVER LEAKAGE =     9600000.0000         RIVER LEAKAGE =      600000.0000
                  ET =           0.0000                    ET =           0.0000
            RECHARGE =      531199.9375              RECHARGE =       33199.9961

            TOTAL IN =    10223898.0000              TOTAL IN =      638859.3750

          OUT:                                     OUT:
          ----                                     ----
             STORAGE =    10121486.0000               STORAGE =      632427.5000
       CONSTANT HEAD =         712.2677         CONSTANT HEAD =          84.0282
               WELLS =       96000.0000                 WELLS =        6000.0000
       RIVER LEAKAGE =           0.0000         RIVER LEAKAGE =           0.0000
                  ET =        3093.9763                    ET =         195.9970
            RECHARGE =           0.0000              RECHARGE =           0.0000

           TOTAL OUT =    10221292.0000             TOTAL OUT =      638707.5000

            IN - OUT =        2606.0000              IN - OUT =         151.8750

 PERCENT DISCREPANCY =           0.03     PERCENT DISCREPANCY =           0.02






         TIME SUMMARY AT END OF TIME STEP    1 IN STRESS PERIOD   16
                    SECONDS     MINUTES      HOURS       DAYS        YEARS
                    -----------------------------------------------------------
   TIME STEP LENGTH  86400.      1440.0      24.000      1.0000     2.73785E-03
 STRESS PERIOD TIME  86400.      1440.0      24.000      1.0000     2.73785E-03
         TOTAL TIME 1.38240E+06  23040.      384.00      16.000     4.38056E-02
1
1
                            STRESS PERIOD NO.   17, LENGTH =   1.000000    
                            -----------------------------------------------

                              NUMBER OF TIME STEPS =     1

                               MULTIPLIER FOR DELT =     1.000

                            INITIAL TIME STEP SIZE =   1.000000    

 WELL NO.  LAYER   ROW   COL   STRESS RATE         
 --------------------------------------------------
      1      3     22     39      -1500.    
      2      1     13     15      -4500.    
      3      1     25     26       375.0    

      3 WELLS

 REUSING NON-PARAMETER RIVER REACHES FROM LAST STRESS PERIOD

     49 RIVER REACHES

 REUSING SURF FROM LAST STRESS PERIOD



            EVAPOTRANSPIRATION RATE
 READING ON UNIT   22 WITH FORMAT: (50E15.6)           

 REUSING EXDP FROM LAST STRESS PERIOD



                           RECHARGE
 READING ON UNIT   19 WITH FORMAT: (50E15.6)           
 
 SOLVING FOR HEAD 

 NO OUTPUT CONTROL FOR STRESS PERIOD   17   TIME STEP    1
1
  VOLUMETRIC BUDGET FOR ENTIRE MODEL AT END OF TIME STEP    1, STRESS PERIOD  17
  ------------------------------------------------------------------------------

     CUMULATIVE VOLUMES      L**3       RATES FOR THIS TIME STEP      L**3/T
     ------------------                 ------------------------

           IN:                                      IN:
           ---                                      ---
             STORAGE =       80833.3203               STORAGE =        4617.9048
       CONSTANT HEAD =       11148.0576         CONSTANT HEAD =         665.8870
               WELLS =        6375.0000                 WELLS =         375.0000
       RIVER LEAKAGE =    10200000.0000         RIVER LEAKAGE =      600000.0000
                  ET =           0.0000                    ET =           0.0000
            RECHARGE =      564399.9375              RECHARGE =       33199.9961

            TOTAL IN =    10862756.0000              TOTAL IN =      638858.8125

          OUT:                                     OUT:
          ----                                     ----
             STORAGE =    10754412.0000               STORAGE =      632925.5000
       CONSTANT HEAD =         801.5977         CONSTANT HEAD =          89.3300
               WELLS =      102000.0000                 WELLS =        6000.0000
       RIVER LEAKAGE =           0.0000         RIVER LEAKAGE =           0.0000
                  ET =        3290.3230                    ET =         196.3467
            RECHARGE =           0.0000              RECHARGE =           0.0000

           TOTAL OUT =    10860504.0000             TOTAL OUT =      639211.1875

            IN - OUT =        2252.0000              IN - OUT =        -352.3750

 PERCENT DISCREPANCY =           0.02     PERCENT DISCREPANCY =          -0.06






         TIME SUMMARY AT END OF TIME STEP    1 IN STRESS PERIOD   17
                    SECONDS     MINUTES      HOURS       DAYS        YEARS
                    -----------------------------------------------------------
   TIME STEP LENGTH  86400.      1440.0      24.000      1.0000     2.73785E-03
 STRESS PERIOD TIME  86400.      1440.0      24.000      1.0000     2.73785E-03
         TOTAL TIME 1.46880E+06  24480.      408.00      17.000     4.65435E-02
1
1
                            STRESS PERIOD NO.   18, LENGTH =   1.000000    
                            -----------------------------------------------

                              NUMBER OF TIME STEPS =     1

                               MULTIPLIER FOR DELT =     1.000

                            INITIAL TIME STEP SIZE =   1.000000    

 WELL NO.  LAYER   ROW   COL   STRESS RATE         
 --------------------------------------------------
      1      3     22     39      -1500.    
      2      1     13     15      -4500.    
      3      1     25     26       375.0    

      3 WELLS

 REUSING NON-PARAMETER RIVER REACHES FROM LAST STRESS PERIOD

     49 RIVER REACHES

 REUSING SURF FROM LAST STRESS PERIOD



            EVAPOTRANSPIRATION RATE
 READING ON UNIT   22 WITH FORMAT: (50E15.6)           

 REUSING EXDP FROM LAST STRESS PERIOD



                           RECHARGE
 READING ON UNIT   19 WITH FORMAT: (50E15.6)           
 
 SOLVING FOR HEAD 

 NO OUTPUT CONTROL FOR STRESS PERIOD   18   TIME STEP    1
1
  VOLUMETRIC BUDGET FOR ENTIRE MODEL AT END OF TIME STEP    1, STRESS PERIOD  18
  ------------------------------------------------------------------------------

     CUMULATIVE VOLUMES      L**3       RATES FOR THIS TIME STEP      L**3/T
     ------------------                 ------------------------

           IN:                                      IN:
           ---                                      ---
             STORAGE =       85442.1016               STORAGE =        4608.7798
       CONSTANT HEAD =       11813.2334         CONSTANT HEAD =         665.1758
               WELLS =        6750.0000                 WELLS =         375.0000
       RIVER LEAKAGE =    10800000.0000         RIVER LEAKAGE =      600000.0000
                  ET =           0.0000                    ET =           0.0000
            RECHARGE =      597599.9375              RECHARGE =       33199.9961

            TOTAL IN =    11501605.0000              TOTAL IN =      638848.9375

          OUT:                                     OUT:
          ----                                     ----
             STORAGE =    11386824.0000               STORAGE =      632412.1250
       CONSTANT HEAD =         896.2339         CONSTANT HEAD =          94.6362
               WELLS =      108000.0000                 WELLS =        6000.0000
       RIVER LEAKAGE =           0.0000         RIVER LEAKAGE =           0.0000
                  ET =        3487.0195                    ET =         196.6965
            RECHARGE =           0.0000              RECHARGE =           0.0000

           TOTAL OUT =    11499207.0000             TOTAL OUT =      638703.4375

            IN - OUT =        2398.0000              IN - OUT =         145.5000

 PERCENT DISCREPANCY =           0.02     PERCENT DISCREPANCY =           0.02






         TIME SUMMARY AT END OF TIME STEP    1 IN STRESS PERIOD   18
                    SECONDS     MINUTES      HOURS       DAYS        YEARS
                    -----------------------------------------------------------
   TIME STEP LENGTH  86400.      1440.0      24.000      1.0000     2.73785E-03
 STRESS PERIOD TIME  86400.      1440.0      24.000      1.0000     2.73785E-03
         TOTAL TIME 1.55520E+06  25920.      432.00      18.000     4.92813E-02
1
1
                            STRESS PERIOD NO.   19, LENGTH =   1.000000    
                            -----------------------------------------------

                              NUMBER OF TIME STEPS =     1

                               MULTIPLIER FOR DELT =     1.000

                            INITIAL TIME STEP SIZE =   1.000000    

 WELL NO.  LAYER   ROW   COL   STRESS RATE         
 --------------------------------------------------
      1      3     22     39      -1500.    
      2      1     13     15      -4500.    
      3      1     25     26       375.0    

      3 WELLS

 REUSING NON-PARAMETER RIVER REACHES FROM LAST STRESS PERIOD

     49 RIVER REACHES

 REUSING SURF FROM LAST STRESS PERIOD



            EVAPOTRANSPIRATION RATE
 READING ON UNIT   22 WITH FORMAT: (50E15.6)           

 REUSING EXDP FROM LAST STRESS PERIOD



                           RECHARGE
 READING ON UNIT   19 WITH FORMAT: (50E15.6)           
 
 SOLVING FOR HEAD 

 NO OUTPUT CONTROL FOR STRESS PERIOD   19   TIME STEP    1
1
  VOLUMETRIC BUDGET FOR ENTIRE MODEL AT END OF TIME STEP    1, STRESS PERIOD  19
  ------------------------------------------------------------------------------

     CUMULATIVE VOLUMES      L**3       RATES FOR THIS TIME STEP      L**3/T
     ------------------                 ------------------------

           IN:                                      IN:
           ---                                      ---
             STORAGE =       90029.8828               STORAGE =        4587.7798
       CONSTANT HEAD =       12477.6982         CONSTANT HEAD =         664.4648
               WELLS =        7125.0000                 WELLS =         375.0000
       RIVER LEAKAGE =    11400000.0000         RIVER LEAKAGE =      600000.0000
                  ET =           0.0000                    ET =           0.0000
            RECHARGE =      630799.9375              RECHARGE =       33199.9961

            TOTAL IN =    12140433.0000              TOTAL IN =      638827.2500

          OUT:                                     OUT:
          ----                                     ----
             STORAGE =    12019264.0000               STORAGE =      632440.1250
       CONSTANT HEAD =         996.1842         CONSTANT HEAD =          99.9502
               WELLS =      114000.0000                 WELLS =        6000.0000
       RIVER LEAKAGE =           0.0000         RIVER LEAKAGE =           0.0000
                  ET =        3684.0657                    ET =         197.0462
            RECHARGE =           0.0000              RECHARGE =           0.0000

           TOTAL OUT =    12137944.0000             TOTAL OUT =      638737.1250

            IN - OUT =        2489.0000              IN - OUT =          90.1250

 PERCENT DISCREPANCY =           0.02     PERCENT DISCREPANCY =           0.01






         TIME SUMMARY AT END OF TIME STEP    1 IN STRESS PERIOD   19
                    SECONDS     MINUTES      HOURS       DAYS        YEARS
                    -----------------------------------------------------------
   TIME STEP LENGTH  86400.      1440.0      24.000      1.0000     2.73785E-03
 STRESS PERIOD TIME  86400.      1440.0      24.000      1.0000     2.73785E-03
         TOTAL TIME 1.64160E+06  27360.      456.00      19.000     5.20192E-02
1
1
                            STRESS PERIOD NO.   20, LENGTH =   1.000000    
                            -----------------------------------------------

                              NUMBER OF TIME STEPS =     1

                               MULTIPLIER FOR DELT =     1.000

                            INITIAL TIME STEP SIZE =   1.000000    

 WELL NO.  LAYER   ROW   COL   STRESS RATE         
 --------------------------------------------------
      1      3     22     39      -1500.    
      2      1     13     15      -4500.    
      3      1     25     26       375.0    

      3 WELLS

 REUSING NON-PARAMETER RIVER REACHES FROM LAST STRESS PERIOD

     49 RIVER REACHES

 REUSING SURF FROM LAST STRESS PERIOD



            EVAPOTRANSPIRATION RATE
 READING ON UNIT   22 WITH FORMAT: (50E15.6)           

 REUSING EXDP FROM LAST STRESS PERIOD



                           RECHARGE
 READING ON UNIT   19 WITH FORMAT: (50E15.6)           
 
 SOLVING FOR HEAD 

 NO OUTPUT CONTROL FOR STRESS PERIOD   20   TIME STEP    1
1
  VOLUMETRIC BUDGET FOR ENTIRE MODEL AT END OF TIME STEP    1, STRESS PERIOD  20
  ------------------------------------------------------------------------------

     CUMULATIVE VOLUMES      L**3       RATES FOR THIS TIME STEP      L**3/T
     ------------------                 ------------------------

           IN:                                      IN:
           ---                                      ---
             STORAGE =       94630.2891               STORAGE =        4600.4048
       CONSTANT HEAD =       13141.4521         CONSTANT HEAD =         663.7537
               WELLS =        7500.0000                 WELLS =         375.0000
       RIVER LEAKAGE =    12000000.0000         RIVER LEAKAGE =      600000.0000
                  ET =           0.0000                    ET =           0.0000
            RECHARGE =      663999.9375              RECHARGE =       33199.9961

            TOTAL IN =    12779272.0000              TOTAL IN =      638839.1875

          OUT:                                     OUT:
          ----                                     ----
             STORAGE =    12650876.0000               STORAGE =      631611.6875
       CONSTANT HEAD =        1101.4528         CONSTANT HEAD =         105.2685
               WELLS =      120000.0000                 WELLS =        6000.0000
       RIVER LEAKAGE =           0.0000         RIVER LEAKAGE =           0.0000
                  ET =        3881.4617                    ET =         197.3960
            RECHARGE =           0.0000              RECHARGE =           0.0000

           TOTAL OUT =    12775858.0000             TOTAL OUT =      637914.3125

            IN - OUT =        3414.0000              IN - OUT =         924.8750

 PERCENT DISCREPANCY =           0.03     PERCENT DISCREPANCY =           0.14






         TIME SUMMARY AT END OF TIME STEP    1 IN STRESS PERIOD   20
                    SECONDS     MINUTES      HOURS       DAYS        YEARS
                    -----------------------------------------------------------
   TIME STEP LENGTH  86400.      1440.0      24.000      1.0000     2.73785E-03
 STRESS PERIOD TIME  86400.      1440.0      24.000      1.0000     2.73785E-03
         TOTAL TIME 1.72800E+06  28800.      480.00      20.000     5.47570E-02
1
1
                            STRESS PERIOD NO.   21, LENGTH =   1.000000    
                            -----------------------------------------------

                              NUMBER OF TIME STEPS =     1

                               MULTIPLIER FOR DELT =     1.000

                            INITIAL TIME STEP SIZE =   1.000000    

 WELL NO.  LAYER   ROW   COL   STRESS RATE         
 --------------------------------------------------
      1      3     22     39      -1500.    
      2      1     13     15      -4500.    
      3      1     25     26       375.0    

      3 WELLS

 REUSING NON-PARAMETER RIVER REACHES FROM LAST STRESS PERIOD

     49 RIVER REACHES

 REUSING SURF FROM LAST STRESS PERIOD



            EVAPOTRANSPIRATION RATE
 READING ON UNIT   22 WITH FORMAT: (50E15.6)           

 REUSING EXDP FROM LAST STRESS PERIOD



                           RECHARGE
 READING ON UNIT   19 WITH FORMAT: (50E15.6)           
 
 SOLVING FOR HEAD 

 NO OUTPUT CONTROL FOR STRESS PERIOD   21   TIME STEP    1
1
  VOLUMETRIC BUDGET FOR ENTIRE MODEL AT END OF TIME STEP    1, STRESS PERIOD  21
  ------------------------------------------------------------------------------

     CUMULATIVE VOLUMES      L**3       RATES FOR THIS TIME STEP      L**3/T
     ------------------                 ------------------------

           IN:                                      IN:
           ---                                      ---
             STORAGE =       99244.4453               STORAGE =        4614.1548
       CONSTANT HEAD =       13804.4951         CONSTANT HEAD =         663.0426
               WELLS =        7875.0000                 WELLS =         375.0000
       RIVER LEAKAGE =    12600000.0000         RIVER LEAKAGE =      600000.0000
                  ET =           0.0000                    ET =           0.0000
            RECHARGE =      697199.9375              RECHARGE =       33199.9961

            TOTAL IN =    13418124.0000              TOTAL IN =      638852.1875

          OUT:                                     OUT:
          ----                                     ----
             STORAGE =    13282640.0000               STORAGE =      631764.0625
       CONSTANT HEAD =        1212.0438         CONSTANT HEAD =         110.5911
               WELLS =      126000.0000                 WELLS =        6000.0000
       RIVER LEAKAGE =           0.0000         RIVER LEAKAGE =           0.0000
                  ET =        4079.2073                    ET =         197.7457
            RECHARGE =           0.0000              RECHARGE =           0.0000

           TOTAL OUT =    13413931.0000             TOTAL OUT =      638072.3750

            IN - OUT =        4193.0000              IN - OUT =         779.8125

 PERCENT DISCREPANCY =           0.03     PERCENT DISCREPANCY =           0.12






         TIME SUMMARY AT END OF TIME STEP    1 IN STRESS PERIOD   21
                    SECONDS     MINUTES      HOURS       DAYS        YEARS
                    -----------------------------------------------------------
   TIME STEP LENGTH  86400.      1440.0      24.000      1.0000     2.73785E-03
 STRESS PERIOD TIME  86400.      1440.0      24.000      1.0000     2.73785E-03
         TOTAL TIME 1.81440E+06  30240.      504.00      21.000     5.74949E-02
1

 Run end date and time (yyyy/mm/dd hh:mm:ss): 2026/02/26 22:11:26
 Elapsed run time: 32.323 Seconds

