                                  MODFLOW-2005     
      U.S. GEOLOGICAL SURVEY MODULAR FINITE-DIFFERENCE GROUND-WATER FLOW MODEL
                            VERSION 1.12.00 2/3/2017

 LIST FILE: static_ensemble_1133313.list
                         UNIT    2

 OPENING static_ensemble_1133313.dis
 FILE TYPE:DIS   UNIT   11   STATUS:OLD    
 FORMAT:FORMATTED              ACCESS:SEQUENTIAL          

 OPENING static_ensemble_1133313.bas
 FILE TYPE:BAS6   UNIT   13   STATUS:OLD    
 FORMAT:FORMATTED              ACCESS:SEQUENTIAL          

 OPENING static_ensemble_1133313.lpf
 FILE TYPE:LPF   UNIT   15   STATUS:OLD    
 FORMAT:FORMATTED              ACCESS:SEQUENTIAL          

 OPENING static_ensemble_1133313.evt
 FILE TYPE:EVT   UNIT   22   STATUS:OLD    
 FORMAT:FORMATTED              ACCESS:SEQUENTIAL          

 OPENING static_ensemble_1133313.rch
 FILE TYPE:RCH   UNIT   19   STATUS:OLD    
 FORMAT:FORMATTED              ACCESS:SEQUENTIAL          

 OPENING static_ensemble_1133313.riv
 FILE TYPE:RIV   UNIT   18   STATUS:OLD    
 FORMAT:FORMATTED              ACCESS:SEQUENTIAL          

 OPENING static_ensemble_1133313.wel
 FILE TYPE:WEL   UNIT   20   STATUS:OLD    
 FORMAT:FORMATTED              ACCESS:SEQUENTIAL          

 OPENING static_ensemble_1133313.oc
 FILE TYPE:OC   UNIT   14   STATUS:OLD    
 FORMAT:FORMATTED              ACCESS:SEQUENTIAL          

 OPENING static_ensemble_1133313.pcg
 FILE TYPE:PCG   UNIT   27   STATUS:OLD    
 FORMAT:FORMATTED              ACCESS:SEQUENTIAL          

 OPENING static_ensemble_1133313.cbc
 FILE TYPE:DATA(BINARY)   UNIT   53   STATUS:REPLACE
 FORMAT:UNFORMATTED            ACCESS:STREAM              

 OPENING static_ensemble_1133313.hds
 FILE TYPE:DATA(BINARY)   UNIT   51   STATUS:REPLACE
 FORMAT:UNFORMATTED            ACCESS:STREAM              

 OPENING static_ensemble_1133313.ddn
 FILE TYPE:DATA(BINARY)   UNIT   52   STATUS:REPLACE
 FORMAT:UNFORMATTED            ACCESS:STREAM              

 BAS -- BASIC PACKAGE, VERSION 7, 5/2/2005 INPUT READ FROM UNIT   13
 
 MODFLOW was compiled using mixed precision
 Precision of REAL variables:           6
 Precision of DOUBLE PRECISION variables:          15

 DISCRETIZATION INPUT DATA READ FROM UNIT   11
 # DIS package for MODFLOW-2005 generated by Flopy 3.9.5
    3 LAYERS        50 ROWS        50 COLUMNS
    1 STRESS PERIOD(S) IN SIMULATION
 MODEL TIME UNIT IS DAYS
 MODEL LENGTH UNIT IS METERS
  Confining bed flag for each layer:
   0   0   0

                     DELR =   1000.00    

                     DELC =   1000.00    



           TOP ELEVATION OF LAYER 1
 READING ON UNIT   11 WITH FORMAT: (50E15.6)           



             MODEL LAYER BOTTOM EL. FOR LAYER   1
 READING ON UNIT   11 WITH FORMAT: (50E15.6)           



             MODEL LAYER BOTTOM EL. FOR LAYER   2
 READING ON UNIT   11 WITH FORMAT: (50E15.6)           



             MODEL LAYER BOTTOM EL. FOR LAYER   3
 READING ON UNIT   11 WITH FORMAT: (50E15.6)           


 STRESS PERIOD     LENGTH       TIME STEPS     MULTIPLIER FOR DELT    SS FLAG
 ----------------------------------------------------------------------------
        1         1.000000          1                    1.000         SS

 STEADY-STATE SIMULATION



 
 # BAS6 package for MODFLOW-2005 generated by Flopy 3.9.5                        
 THE FREE FORMAT OPTION HAS BEEN SELECTED



                     BOUNDARY ARRAY FOR LAYER   1
 READING ON UNIT   13 WITH FORMAT: (50I10)             



                     BOUNDARY ARRAY FOR LAYER   2
 READING ON UNIT   13 WITH FORMAT: (50I10)             



                     BOUNDARY ARRAY FOR LAYER   3
 READING ON UNIT   13 WITH FORMAT: (50I10)             

 AQUIFER HEAD WILL BE SET TO  -999.99     AT ALL NO-FLOW NODES (IBOUND=0).



                       INITIAL HEAD FOR LAYER   1
 READING ON UNIT   13 WITH FORMAT: (50E15.6)           



                       INITIAL HEAD FOR LAYER   2
 READING ON UNIT   13 WITH FORMAT: (50E15.6)           



                       INITIAL HEAD FOR LAYER   3
 READING ON UNIT   13 WITH FORMAT: (50E15.6)           
 # OC package for MODFLOW-2005 generated by Flopy 3.9.5

 OUTPUT CONTROL IS SPECIFIED ONLY AT TIME STEPS FOR WHICH OUTPUT IS DESIRED
 COMPACT CELL-BY-CELL BUDGET FILES WILL BE WRITTEN
 AUXILIARY DATA WILL BE SAVED IN CELL-BY-CELL BUDGET FILES
 HEAD PRINT FORMAT CODE IS   0    DRAWDOWN PRINT FORMAT CODE IS   0
 HEADS WILL BE SAVED ON UNIT   51    DRAWDOWNS WILL BE SAVED ON UNIT   52

 LPF -- LAYER-PROPERTY FLOW PACKAGE, VERSION 7, 5/2/2005
         INPUT READ FROM UNIT   15
 # LPF package for MODFLOW-2005 generated by Flopy 3.9.5
 CELL-BY-CELL FLOWS WILL BE SAVED ON UNIT   53
 HEAD AT CELLS THAT CONVERT TO DRY= -1.00000E+30
 No named parameters
 STORAGECOEFFICIENT OPTION:
 Read storage coefficient rather than specific storage

   LAYER FLAGS:
 LAYER       LAYTYP        LAYAVG         CHANI        LAYVKA        LAYWET
 ---------------------------------------------------------------------------
    1             1             0     1.000E+00             0             0
    2             1             0     1.000E+00             0             0
    3             1             0     1.000E+00             0             0

   INTERPRETATION OF LAYER FLAGS:
                        INTERBLOCK     HORIZONTAL    DATA IN
         LAYER TYPE   TRANSMISSIVITY   ANISOTROPY   ARRAY VKA   WETTABILITY
 LAYER      (LAYTYP)      (LAYAVG)       (CHANI)      (LAYVKA)      (LAYWET)
 ---------------------------------------------------------------------------
    1   CONVERTIBLE      HARMONIC     1.000E+00    VERTICAL K  NON-WETTABLE
    2   CONVERTIBLE      HARMONIC     1.000E+00    VERTICAL K  NON-WETTABLE
    3   CONVERTIBLE      HARMONIC     1.000E+00    VERTICAL K  NON-WETTABLE

 WETTING CAPABILITY IS NOT ACTIVE IN ANY LAYER



              HYD. COND. ALONG ROWS FOR LAYER   1
 READING ON UNIT   15 WITH FORMAT: (50E15.6)           



                VERTICAL HYD. COND. FOR LAYER   1
 READING ON UNIT   15 WITH FORMAT: (50E15.6)           



              HYD. COND. ALONG ROWS FOR LAYER   2
 READING ON UNIT   15 WITH FORMAT: (50E15.6)           



                VERTICAL HYD. COND. FOR LAYER   2
 READING ON UNIT   15 WITH FORMAT: (50E15.6)           



              HYD. COND. ALONG ROWS FOR LAYER   3
 READING ON UNIT   15 WITH FORMAT: (50E15.6)           



                VERTICAL HYD. COND. FOR LAYER   3
 READING ON UNIT   15 WITH FORMAT: (50E15.6)           

 WEL -- WELL PACKAGE, VERSION 7, 5/2/2005 INPUT READ FROM UNIT   20
 # WEL package for MODFLOW-2005 generated by Flopy 3.9.5
 No named parameters
 MAXIMUM OF      3 ACTIVE WELLS AT ONE TIME


     0 Well parameters

 RIV -- RIVER PACKAGE, VERSION 7, 5/2/2005 INPUT READ FROM UNIT   18
 # RIV package for MODFLOW-2005 generated by Flopy 3.9.5
 No named parameters
 MAXIMUM OF     49 ACTIVE RIVER REACHES AT ONE TIME
 CELL-BY-CELL FLOWS WILL BE SAVED ON UNIT   53


     0 River parameters

 EVT -- EVAPOTRANSPIRATION PACKAGE, VERSION 7, 5/2/2005
         INPUT READ FROM UNIT   22
 # EVT package for MODFLOW-2005 generated by Flopy 3.9.5
 No named parameters
 OPTION 3 -- EVAPOTRANSPIRATION FROM HIGHEST ACTIVE NODE IN EACH VERTICAL COLUMN
 CELL-BY-CELL FLOWS WILL BE SAVED ON UNIT   53


     0 Evapotranspiration parameters

 RCH -- RECHARGE PACKAGE, VERSION 7, 5/2/2005 INPUT READ FROM UNIT   19
 # RCH package for MODFLOW-2005 generated by Flopy 3.9.5
 No named parameters
 OPTION 3 -- RECHARGE TO HIGHEST ACTIVE NODE IN EACH VERTICAL COLUMN
 CELL-BY-CELL FLOWS WILL BE SAVED ON UNIT   53


     0 Recharge parameters

 PCG -- CONJUGATE-GRADIENT SOLUTION PACKAGE, VERSION 7, 5/2/2005
 # PCG package for MODFLOW-2005 generated by Flopy 3.9.5
 MAXIMUM OF   5000 CALLS OF SOLUTION ROUTINE
 MAXIMUM OF    500 INTERNAL ITERATIONS PER CALL TO SOLUTION ROUTINE
 MATRIX PRECONDITIONING TYPE :    1



                                    SOLUTION BY THE CONJUGATE-GRADIENT METHOD
                                   -------------------------------------------
                    MAXIMUM NUMBER OF CALLS TO PCG ROUTINE =     5000
                        MAXIMUM ITERATIONS PER CALL TO PCG =      500
                               MATRIX PRECONDITIONING TYPE =        1
        RELAXATION FACTOR (ONLY USED WITH PRECOND. TYPE 1) =    0.97000E+00
 PARAMETER OF POLYNOMIAL PRECOND. = 2 (2) OR IS CALCULATED :        0
                         HEAD CHANGE CRITERION FOR CLOSURE =    0.10000E-04
                     RESIDUAL CHANGE CRITERION FOR CLOSURE =    0.10000E-04
            PCG HEAD AND RESIDUAL CHANGE PRINTOUT INTERVAL =      999
     PRINTING FROM SOLVER IS LIMITED(1) OR SUPPRESSED (>1) =        3
                            STEADY-STATE DAMPING PARAMETER =    0.10000E-01
                               TRANSIENT DAMPING PARAMETER =    0.10000E-01
1
                            STRESS PERIOD NO.    1, LENGTH =   1.000000    
                            -----------------------------------------------

                              NUMBER OF TIME STEPS =     1

                               MULTIPLIER FOR DELT =     1.000

                            INITIAL TIME STEP SIZE =   1.000000    

 WELL NO.  LAYER   ROW   COL   STRESS RATE         
 --------------------------------------------------
      1      3     22     39      -1500.    
      2      1     13     15      -1500.    
      3      1     25     26       375.0    

      3 WELLS

 REACH NO.  LAYER   ROW   COL     STAGE      CONDUCTANCE     BOTTOM EL.         
 -------------------------------------------------------------------------------
      1      1     25      2       100.5           5000.           98.00    
      2      1     25      3       99.50           5000.           97.00    
      3      1     25      4       98.50           5000.           96.00    
      4      1     25      5       97.50           5000.           95.00    
      5      1     25      6       96.50           5000.           94.00    
      6      1     25      7       95.50           5000.           93.00    
      7      1     25      8       94.50           5000.           92.00    
      8      1     25      9       93.50           5000.           91.00    
      9      1     25     10       92.50           5000.           90.00    
     10      1     25     11       91.50           5000.           89.00    
     11      1     25     12       90.50           5000.           88.00    
     12      1     25     13       89.50           5000.           87.00    
     13      1     25     14       88.50           5000.           86.00    
     14      1     25     15       87.50           5000.           85.00    
     15      1     25     16       86.50           5000.           84.00    
     16      1     25     17       85.50           5000.           83.00    
     17      1     25     18       84.50           5000.           82.00    
     18      1     25     19       83.50           5000.           81.00    
     19      1     25     20       82.50           5000.           80.00    
     20      1     25     21       81.50           5000.           79.00    
     21      1     25     22       80.50           5000.           78.00    
     22      1     25     23       79.50           5000.           77.00    
     23      1     25     24       78.50           5000.           76.00    
     24      1     25     25       77.50           5000.           75.00    
     25      1     25     26       77.40           5000.           74.90    
     26      1     25     27       77.30           5000.           74.80    
     27      1     25     28       77.20           5000.           74.70    
     28      1     25     29       77.10           5000.           74.60    
     29      1     25     30       77.00           5000.           74.50    
     30      1     25     31       76.90           5000.           74.40    
     31      1     25     32       76.80           5000.           74.30    
     32      1     25     33       76.70           5000.           74.20    
     33      1     25     34       76.60           5000.           74.10    
     34      1     25     35       76.50           5000.           74.00    
     35      1     25     36       76.40           5000.           73.90    
     36      1     25     37       76.30           5000.           73.80    
     37      1     25     38       76.20           5000.           73.70    
     38      1     25     39       76.10           5000.           73.60    
     39      1     25     40       76.00           5000.           73.50    
     40      1     25     41       75.90           5000.           73.40    
     41      1     25     42       75.80           5000.           73.30    
     42      1     25     43       75.70           5000.           73.20    
     43      1     25     44       75.60           5000.           73.10    
     44      1     25     45       75.50           5000.           73.00    
     45      1     25     46       75.40           5000.           72.90    
     46      1     25     47       75.30           5000.           72.80    
     47      1     25     48       75.20           5000.           72.70    
     48      1     25     49       75.10           5000.           72.60    
     49      1     25     50       75.00           5000.           72.50    

     49 RIVER REACHES



                         ET SURFACE
 READING ON UNIT   22 WITH FORMAT: (50E15.6)           



            EVAPOTRANSPIRATION RATE
 READING ON UNIT   22 WITH FORMAT: (50E15.6)           

         EXTINCTION DEPTH =   10.0000    



                           RECHARGE
 READING ON UNIT   19 WITH FORMAT: (50E15.6)           
 
 SOLVING FOR HEAD 

 OUTPUT CONTROL FOR STRESS PERIOD    1   TIME STEP    1
    SAVE HEAD FOR ALL LAYERS
    SAVE DRAWDOWN FOR ALL LAYERS
    SAVE BUDGET
    PRINT HEAD FOR ALL LAYERS
    PRINT BUDGET
 UBDSV2 SAVING "   CONSTANT HEAD" ON UNIT  53 AT TIME STEP  1, STRESS PERIOD   1
 UBDSV1 SAVING "FLOW RIGHT FACE " ON UNIT  53 AT TIME STEP  1, STRESS PERIOD   1
 UBDSV1 SAVING "FLOW FRONT FACE " ON UNIT  53 AT TIME STEP  1, STRESS PERIOD   1
 UBDSV1 SAVING "FLOW LOWER FACE " ON UNIT  53 AT TIME STEP  1, STRESS PERIOD   1
 UBDSV4 SAVING "   RIVER LEAKAGE" ON UNIT  53 AT TIME STEP  1, STRESS PERIOD   1
 UBDSV3 SAVING "              ET" ON UNIT  53 AT TIME STEP  1, STRESS PERIOD   1
 UBDSV3 SAVING "        RECHARGE" ON UNIT  53 AT TIME STEP  1, STRESS PERIOD   1
1
              HEAD IN LAYER   1 AT END OF TIME STEP   1 IN STRESS PERIOD    1
  ---------------------------------------------------------------------------

            1           2           3           4           5           6           7           8           9          10
           11          12          13          14          15          16          17          18          19          20
           21          22          23          24          25          26          27          28          29          30
           31          32          33          34          35          36          37          38          39          40
           41          42          43          44          45          46          47          48          49          50
 ........................................................................................................................
   1  -1000.0     -1000.0     -1000.0     -1000.0     -1000.0     -1000.0     -1000.0     -1000.0     -1000.0     -1000.0    
      -1000.0     -1000.0     -1000.0     -1000.0     -1000.0     -1000.0     -1000.0     -1000.0     -1000.0     -1000.0    
      -1000.0     -1000.0     -1000.0     -1000.0     -1000.0     -1000.0     -1000.0     -1000.0     -1000.0     -1000.0    
      -1000.0     -1000.0     -1000.0     -1000.0     -1000.0     -1000.0     -1000.0     -1000.0     -1000.0     -1000.0    
      -1000.0     -1000.0     -1000.0     -1000.0     -1000.0     -1000.0     -1000.0     -1000.0     -1000.0       70.00    
   2  -1000.0     -1000.0     -1000.0     -1000.0     -1000.0       100.2       99.95       99.51       98.96       98.31    
        97.77       97.11       96.36       95.52       94.59       93.57       92.57       91.60       90.64       89.70    
        88.81       87.93       87.06       86.22       85.39       84.58       83.79       83.02       82.28       81.55    
        80.85       80.17       79.51       78.87       78.25       77.64       77.05       76.47       75.91       75.35    
        74.81       74.27       73.74       73.21       72.68       72.15       71.62       71.09       70.55       70.00    
   3  -1000.0     -1000.0     -1000.0     -1000.0       100.6       100.3       99.94       99.47       98.89       98.36    
        97.77       97.10       96.34       95.49       94.56       93.54       92.54       91.56       90.61       89.67    
        88.78       87.89       87.03       86.18       85.35       84.54       83.75       82.99       82.24       81.52    
        80.82       80.14       79.48       78.84       78.22       77.62       77.03       76.45       75.89       75.34    
        74.79       74.26       73.72       73.20       72.67       72.15       71.62       71.09       70.55       70.00    
   4  -1000.0     -1000.0     -1000.0       100.9       100.6       100.3       99.91       99.39       98.91       98.37    
        97.76       97.07       96.29       95.44       94.50       93.48       92.48       91.50       90.54       89.61    
        88.71       87.83       86.96       86.11       85.28       84.47       83.68       82.91       82.17       81.45    
        80.75       80.08       79.42       78.79       78.17       77.57       76.98       76.41       75.85       75.30    
        74.76       74.23       73.70       73.17       72.65       72.13       71.61       71.08       70.54       70.00    
   5  -1000.0     -1000.0       101.1       100.9       100.6       100.3       99.81       99.39       98.90       98.34    
        97.71       97.01       96.22       95.36       94.41       93.39       92.38       91.41       90.45       89.52    
        88.62       87.73       86.86       86.00       85.17       84.36       83.57       82.80       82.06       81.34    
        80.65       79.98       79.33       78.70       78.09       77.49       76.91       76.34       75.79       75.25    
        74.71       74.18       73.66       73.14       72.63       72.11       71.59       71.07       70.54       70.00    
   6  -1000.0       101.2       101.1       100.9       100.6       100.2       99.80       99.36       98.86       98.29    
        97.64       96.92       96.12       95.24       94.29       93.26       92.26       91.28       90.32       89.39    
        88.49       87.60       86.72       85.86       85.02       84.21       83.42       82.65       81.91       81.20    
        80.51       79.85       79.20       78.58       77.98       77.39       76.82       76.26       75.71       75.18    
        74.65       74.13       73.61       73.10       72.59       72.08       71.57       71.05       70.53       70.00    
   7  -1000.0       101.1       101.0       100.8       100.4       100.1       99.75       99.30       98.79       98.20    
        97.53       96.79       95.98       95.09       94.13       93.09       92.09       91.11       90.16       89.23    
        88.33       87.43       86.55       85.68       84.84       84.01       83.22       82.46       81.72       81.02    
        80.33       79.68       79.04       78.43       77.84       77.26       76.70       76.15       75.61       75.09    
        74.57       74.06       73.55       73.05       72.55       72.05       71.54       71.04       70.52       70.00    
   8  -1000.0       101.0       100.8       100.6       100.4       100.0       99.67       99.21       98.68       98.07    
        97.39       96.63       95.80       94.90       93.93       92.89       91.89       90.91       89.97       89.05    
        88.13       87.23       86.34       85.46       84.61       83.77       82.98       82.22       81.49       80.79    
        80.12       79.47       78.85       78.25       77.67       77.10       76.56       76.02       75.49       74.98    
        74.47       73.97       73.48       72.99       72.50       72.00       71.51       71.01       70.51       70.00    
   9  -1000.0       100.8       100.7       100.5       100.3       99.95       99.56       99.09       98.54       97.92    
        97.22       96.44       95.58       94.66       93.67       92.63       91.64       90.68       89.74       88.83    
        87.91       87.00       86.10       85.21       84.33       83.48       82.68       81.93       81.21       80.52    
        79.86       79.23       78.62       78.04       77.47       76.92       76.39       75.87       75.36       74.86    
        74.36       73.88       73.39       72.91       72.44       71.96       71.48       70.99       70.50       70.00    
  10  -1000.0       100.6       100.5       100.4       100.1       99.82       99.42       98.94       98.38       97.74    
        97.02       96.21       95.32       94.36       93.35       92.32       91.35       90.41       89.49       88.58    
        87.66       86.74       85.82       84.91       84.01       83.12       82.32       81.58       80.87       80.20    
        79.56       78.95       78.36       77.79       77.25       76.71       76.20       75.69       75.20       74.72    
        74.24       73.77       73.30       72.83       72.37       71.90       71.44       70.96       70.49       70.00    
  11  -1000.0       100.5       100.4       100.2       99.99       99.67       99.26       98.77       98.19       97.54    
        96.79       95.95       95.01       93.99       92.93       91.94       91.01       90.11       89.21       88.32    
        87.38       86.45       85.51       84.58       83.65       82.73       81.91       81.17       80.49       79.84    
        79.22       78.63       78.06       77.52       76.99       76.48       75.98       75.50       75.02       74.56    
        74.10       73.64       73.19       72.74       72.30       71.84       71.39       70.93       70.47       70.00    
  12  -1000.0       100.3       100.2       100.1       99.83       99.49       99.08       98.57       97.99       97.31    
        96.54       95.66       94.67       93.55       92.33       91.48       90.64       89.79       88.91       88.03    
        87.09       86.14       85.18       84.22       83.26       82.29       81.45       80.71       80.04       79.42    
        78.83       78.26       77.72       77.20       76.70       76.22       75.74       75.28       74.83       74.38    
        73.95       73.51       73.08       72.65       72.22       71.78       71.34       70.90       70.45       70.00    
  13  -1000.0       100.2       100.1       99.90       99.64       99.30       98.87       98.36       97.76       97.07    
        96.29       95.39       94.34       93.06       91.24       90.98       90.29       89.47       88.61       87.74    
        86.78       85.80       84.82       83.83       82.83       81.82       80.96       80.21       79.54       78.94    
        78.39       77.85       77.35       76.86       76.38       75.93       75.48       75.04       74.62       74.20    
        73.78       73.37       72.95       72.54       72.13       71.71       71.29       70.87       70.44       70.00    
  14  -1000.0       99.97       99.88       99.71       99.44       99.09       98.65       98.13       97.52       96.83    
        96.03       95.14       94.13       92.99       91.76       90.90       90.06       89.20       88.32       87.44    
        86.45       85.45       84.44       83.42       82.38       81.32       80.43       79.67       79.01       78.43    
        77.89       77.40       76.93       76.47       76.04       75.61       75.19       74.79       74.39       73.99    
        73.60       73.21       72.82       72.43       72.04       71.64       71.24       70.83       70.42       70.00    
  15  -1000.0       99.77       99.68       99.50       99.22       98.86       98.42       97.88       97.27       96.56    
        95.77       94.89       93.92       92.87       91.79       90.78       89.84       88.93       88.02       87.13    
        86.11       85.08       84.04       82.98       81.91       80.80       79.88       79.11       78.45       77.88    
        77.37       76.90       76.47       76.06       75.66       75.27       74.88       74.51       74.14       73.78    
        73.41       73.05       72.69       72.32       71.95       71.57       71.19       70.80       70.40       70.00    
  16  -1000.0       99.57       99.47       99.28       98.99       98.62       98.16       97.61       96.98       96.28    
        95.49       94.62       93.68       92.67       91.63       90.58       89.59       88.64       87.71       86.80    
        85.75       84.68       83.61       82.52       81.41       80.26       79.32       78.54       77.88       77.32    
        76.83       76.39       75.98       75.61       75.25       74.90       74.55       74.21       73.88       73.55    
        73.21       72.88       72.54       72.20       71.86       71.50       71.14       70.77       70.39       70.00    
  17  -1000.0       99.35       99.25       99.05       98.75       98.36       97.88       97.32       96.68       95.96    
        95.17       94.30       93.38       92.39       91.36       90.29       89.28       88.31       87.37       86.45    
        85.36       84.27       83.16       82.04       80.90       79.71       78.75       77.96       77.31       76.76    
        76.29       75.87       75.49       75.15       74.82       74.51       74.20       73.90       73.60       73.31    
        73.01       72.71       72.40       72.09       71.76       71.43       71.09       70.74       70.37       70.00    
  18  -1000.0       99.14       99.03       98.82       98.50       98.08       97.58       96.99       96.33       95.60    
        94.80       93.94       93.02       92.04       91.02       89.94       88.92       87.95       87.00       86.08    
        84.95       83.82       82.68       81.54       80.37       79.16       78.19       77.40       76.76       76.23    
        75.78       75.38       75.03       74.71       74.41       74.13       73.85       73.58       73.32       73.06    
        72.79       72.53       72.26       71.97       71.68       71.37       71.05       70.71       70.36       70.00    
  19  -1000.0       98.94       98.82       98.58       98.23       97.79       97.25       96.64       95.95       95.20    
        94.39       93.52       92.59       91.62       90.59       89.52       88.50       87.53       86.60       85.69    
        84.50       83.32       82.16       81.00       79.82       78.60       77.64       76.88       76.26       75.75    
        75.32       74.95       74.63       74.33       74.06       73.80       73.55       73.31       73.07       72.83    
        72.60       72.36       72.12       71.87       71.60       71.32       71.01       70.69       70.35       70.00    
  20  -1000.0       98.76       98.62       98.35       97.96       97.47       96.90       96.25       95.53       94.75    
        93.91       93.03       92.10       91.12       90.09       89.02       88.02       87.07       86.18       85.27    
        84.01       82.77       81.57       80.41       79.25       78.06       77.13       76.41       75.83       75.36    
        74.97       74.63       74.33       74.05       73.80       73.57       73.34       73.12       72.91       72.70    
        72.49       72.27       72.05       71.82       71.58       71.31       71.01       70.69       70.34       70.00    
  21  -1000.0       98.62       98.45       98.13       97.69       97.14       96.51       95.81       95.05       94.24    
        93.38       92.47       91.53       90.54       89.51       88.45       87.45       86.55       85.77       84.88    
        83.43       82.12       80.90       79.75       78.65       77.54       76.70       76.05       75.53       75.11    
        74.75       74.45       74.18       73.93       73.71       73.49       73.29       73.09       72.90       72.71    
        72.52       72.33       72.13       71.92       71.69       71.43       71.13       70.78       70.39       70.00    
  22  -1000.0       98.55       98.33       97.94       97.41       96.79       96.08       95.32       94.51       93.65    
        92.76       91.83       90.87       89.88       88.85       87.78       86.79       85.88       85.11       84.24    
        82.66       81.30       80.08       78.97       77.97       77.10       76.40       75.85       75.41       75.05    
        74.74       74.48       74.24       74.03       73.83       73.64       73.46       73.29       73.11       72.95    
        72.78       72.60       72.42       72.23       72.02       71.77       71.46       71.07       70.57       70.00    
  23  -1000.0       98.71       98.41       97.91       97.28       96.56       95.77       94.94       94.08       93.18    
        92.25       91.30       90.32       89.32       88.29       87.22       86.22       85.28       84.41       83.55    
        82.03       80.72       79.54       78.49       77.58       76.87       76.32       75.89       75.55       75.26    
        75.02       74.80       74.61       74.43       74.26       74.09       73.94       73.78       73.63       73.49    
        73.34       73.19       73.03       72.86       72.67       72.45       72.15       71.71       71.03       70.00    
  24  -1000.0       99.20       98.74       98.07       97.30       96.46       95.58       94.68       93.75       92.81    
        91.85       90.87       89.88       88.88       87.85       86.79       85.78       84.82       83.90       83.04    
        81.63       80.41       79.31       78.30       77.45       76.94       76.56       76.28       76.04       75.84    
        75.67       75.50       75.35       75.21       75.07       74.94       74.81       74.68       74.55       74.43    
        74.30       74.18       74.05       73.91       73.76       73.58       73.34       72.95       72.13       70.00    
  25  -1000.0       100.2       99.36       98.42       97.46       96.49       95.51       94.52       93.53       92.54    
        91.55       90.55       89.55       88.55       87.54       86.53       85.52       84.53       83.54       82.59    
        81.49       80.47       79.46       78.46       77.50       77.41       77.23       77.12       77.01       76.90    
        76.80       76.69       76.59       76.49       76.39       76.29       76.18       76.08       75.98       75.88    
        75.78       75.68       75.58       75.48       75.37       75.27       75.16       75.05       74.80       70.00    
  26  -1000.0       99.19       98.74       98.07       97.31       96.48       95.61       94.71       93.79       92.85    
        91.89       90.91       89.92       88.91       87.87       86.79       85.75       84.75       83.80       82.93    
        81.47       80.22       79.09       78.06       77.18       76.65       76.24       75.93       75.68       75.47    
        75.29       75.12       74.97       74.83       74.69       74.56       74.43       74.30       74.18       74.06    
        73.93       73.81       73.69       73.56       73.42       73.26       73.06       72.71       71.97       70.00    
  27  -1000.0       98.72       98.42       97.93       97.31       96.60       95.83       95.01       94.15       93.26    
        92.34       91.39       90.41       89.39       88.33       87.22       86.17       85.16       84.20       83.32    
        81.74       80.38       79.17       78.07       77.11       76.35       75.75       75.29       74.91       74.60    
        74.35       74.12       73.92       73.74       73.57       73.41       73.26       73.11       72.97       72.83    
        72.68       72.54       72.40       72.25       72.09       71.90       71.66       71.32       70.78       70.00    
  28  -1000.0       98.61       98.40       98.01       97.49       96.88       96.19       95.45       94.65       93.81    
        92.92       91.99       91.02       90.01       88.94       87.82       86.75       85.73       84.76       83.84    
        82.29       80.91       79.64       78.47       77.39       76.44       75.67       75.06       74.57       74.18    
        73.86       73.58       73.34       73.12       72.92       72.74       72.56       72.39       72.23       72.07    
        71.92       71.76       71.60       71.44       71.26       71.07       70.84       70.58       70.26       70.00    
  29  -1000.0       98.78       98.61       98.30       97.86       97.33       96.71       96.03       95.29       94.49    
        93.63       92.73       91.78       90.77       89.70       88.58       87.50       86.47       85.48       84.53    
        83.12       81.78       80.51       79.27       78.06       76.82       75.87       75.14       74.56       74.10    
        73.71       73.39       73.11       72.87       72.64       72.43       72.24       72.05       71.87       71.70    
        71.53       71.35       71.18       71.01       70.83       70.64       70.44       70.23       70.06       70.00    
  30  -1000.0       99.00       98.87       98.60       98.22       97.75       97.19       96.56       95.86       95.09    
        94.27       93.39       92.45       91.46       90.39       89.27       88.18       87.14       86.13       85.16    
        83.83       82.52       81.24       79.96       78.67       77.31       76.25       75.43       74.79       74.26    
        73.83       73.47       73.16       72.89       72.64       72.41       72.20       72.00       71.80       71.61    
        71.42       71.24       71.05       70.86       70.68       70.49       70.30       70.14       70.01       70.00    
  31  -1000.0       99.27       99.15       98.92       98.58       98.15       97.63       97.04       96.37       95.64    
        94.85       93.99       93.07       92.08       91.02       89.89       88.80       87.75       86.73       85.74    
        84.46       83.17       81.89       80.59       79.26       77.85       76.74       75.87       75.17       74.61    
        74.14       73.75       73.41       73.11       72.84       72.60       72.36       72.14       71.93       71.72    
        71.52       71.32       71.12       70.92       70.72       70.53       70.34       70.17       70.05       70.00    
  32  -1000.0       99.55       99.44       99.23       98.93       98.53       98.04       97.48       96.85       96.14    
        95.37       94.53       93.62       92.64       91.59       90.47       89.37       88.31       87.28       86.28    
        85.02       83.76       82.48       81.19       79.84       78.43       77.29       76.39       75.66       75.07    
        74.58       74.16       73.80       73.48       73.19       72.92       72.67       72.43       72.20       71.97    
        71.75       71.53       71.31       71.09       70.88       70.67       70.47       70.28       70.12       70.00    
  33  -1000.0       99.83       99.74       99.54       99.26       98.88       98.43       97.89       97.28       96.60    
        95.84       95.02       94.12       93.15       92.11       90.99       89.90       88.83       87.79       86.78    
        85.54       84.30       83.04       81.75       80.42       79.01       77.88       76.97       76.23       75.61    
        75.10       74.66       74.28       73.94       73.63       73.34       73.07       72.80       72.55       72.30    
        72.05       71.81       71.56       71.32       71.08       70.85       70.62       70.40       70.19       70.00    
  34  -1000.0       100.1       100.0       99.84       99.58       99.22       98.79       98.27       97.68       97.02    
        96.28       95.47       94.58       93.62       92.58       91.47       90.37       89.31       88.26       87.24    
        86.03       84.80       83.56       82.29       80.98       79.61       78.49       77.58       76.83       76.20    
        75.68       75.22       74.82       74.46       74.12       73.81       73.51       73.22       72.94       72.66    
        72.38       72.10       71.82       71.55       71.28       71.01       70.75       70.49       70.24       70.00    
  35  -1000.0       100.4       100.3       100.1       99.88       99.54       99.12       98.62       98.04       97.40    
        96.67       95.87       95.00       94.05       93.02       91.90       90.81       89.74       88.70       87.67    
        86.48       85.28       84.06       82.81       81.53       80.20       79.10       78.20       77.45       76.82    
        76.28       75.81       75.39       75.00       74.64       74.30       73.96       73.64       73.32       73.00    
        72.69       72.37       72.07       71.76       71.46       71.16       70.87       70.57       70.29       70.00    
  36  -1000.0       100.7       100.6       100.4       100.2       99.83       99.42       98.94       98.38       97.74    
        97.03       96.24       95.38       94.43       93.41       92.30       91.21       90.15       89.10       88.07    
        86.90       85.72       84.53       83.31       82.07       80.78       79.71       78.82       78.08       77.44    
        76.89       76.40       75.95       75.54       75.15       74.76       74.39       74.03       73.67       73.32    
        72.97       72.63       72.29       71.96       71.62       71.30       70.97       70.65       70.32       70.00    
  37  -1000.0       100.9       100.8       100.7       100.4       100.1       99.70       99.23       98.68       98.05    
        97.35       96.58       95.72       94.78       93.77       92.66       91.58       90.51       89.47       88.44    
        87.29       86.14       84.97       83.79       82.58       81.34       80.30       79.43       78.69       78.05    
        77.49       76.97       76.50       76.05       75.62       75.20       74.79       74.39       74.00       73.61    
        73.24       72.87       72.50       72.14       71.78       71.42       71.07       70.71       70.36       70.00    
  38  -1000.0       101.1       101.0       100.9       100.7       100.3       99.95       99.49       98.95       98.34    
        97.64       96.88       96.03       95.10       94.09       92.99       91.91       90.85       89.81       88.78    
        87.66       86.53       85.39       84.24       83.07       81.88       80.88       80.02       79.29       78.64    
        78.06       77.52       77.01       76.52       76.05       75.60       75.15       74.72       74.30       73.89    
        73.48       73.08       72.69       72.30       71.92       71.53       71.15       70.77       70.39       70.00    
  39  -1000.0       101.3       101.2       101.1       100.9       100.6       100.2       99.72       99.19       98.59    
        97.90       97.14       96.30       95.38       94.38       93.29       92.21       91.15       90.12       89.09    
        87.99       86.89       85.78       84.66       83.54       82.40       81.42       80.59       79.85       79.20    
        78.59       78.02       77.48       76.95       76.45       75.96       75.48       75.02       74.58       74.14    
        73.71       73.28       72.86       72.45       72.04       71.64       71.23       70.82       70.41       70.00    
  40  -1000.0       101.5       101.4       101.3       101.1       100.8       100.4       99.93       99.41       98.81    
        98.13       97.38       96.55       95.64       94.64       93.55       92.48       91.43       90.39       89.38    
        88.30       87.22       86.14       85.06       83.97       82.88       81.94       81.12       80.38       79.71    
        79.07       78.47       77.89       77.34       76.80       76.29       75.79       75.30       74.83       74.36    
        73.91       73.46       73.02       72.59       72.16       71.73       71.30       70.87       70.44       70.00    
  41  -1000.0       101.7       101.6       101.4       101.2       100.9       100.6       100.1       99.59       99.00    
        98.33       97.59       96.76       95.86       94.86       93.79       92.72       91.67       90.64       89.63    
        88.57       87.52       86.47       85.42       84.37       83.33       82.41       81.60       80.86       80.16    
        79.50       78.87       78.26       77.68       77.12       76.58       76.05       75.55       75.05       74.57    
        74.09       73.63       73.17       72.71       72.26       71.81       71.36       70.91       70.46       70.00    
  42  -1000.0       101.9       101.7       101.6       101.4       101.1       100.7       100.3       99.75       99.16    
        98.50       97.77       96.95       96.05       95.06       93.99       92.93       91.89       90.87       89.86    
        88.82       87.79       86.76       85.75       84.74       83.73       82.84       82.03       81.28       80.55    
        79.87       79.21       78.58       77.98       77.40       76.84       76.29       75.76       75.25       74.75    
        74.25       73.77       73.29       72.82       72.35       71.89       71.42       70.95       70.48       70.00    
  43  -1000.0       102.0       101.9       101.7       101.5       101.2       100.8       100.4       99.87       99.30    
        98.65       97.92       97.11       96.21       95.23       94.17       93.12       92.08       91.06       90.06    
        89.04       88.03       87.03       86.03       85.06       84.09       83.22       82.40       81.63       80.89    
        80.19       79.51       78.87       78.24       77.64       77.06       76.50       75.95       75.42       74.90    
        74.40       73.90       73.40       72.92       72.43       71.95       71.47       70.98       70.50       70.00    
  44  -1000.0       102.2       102.1       101.9       101.5       101.2       100.9       100.5       99.97       99.40    
        98.76       98.04       97.23       96.35       95.38       94.32       93.27       92.24       91.22       90.23    
        89.23       88.23       87.25       86.28       85.33       84.40       83.54       82.71       81.92       81.17    
        80.45       79.76       79.10       78.46       77.85       77.25       76.68       76.12       75.57       75.04    
        74.52       74.00       73.50       73.00       72.50       72.01       71.51       71.01       70.51       70.00    
  45  -1000.0       102.2       102.2       102.0       101.7       101.3       100.9       100.5       100.0       99.48    
        98.84       98.13       97.34       96.46       95.49       94.44       93.40       92.37       91.36       90.37    
        89.38       88.40       87.44       86.48       85.55       84.65       83.78       82.96       82.16       81.40    
        80.67       79.97       79.30       78.65       78.02       77.41       76.82       76.25       75.70       75.15    
        74.62       74.09       73.58       73.07       72.56       72.05       71.55       71.04       70.52       70.00    
  46  -1000.0     -1000.0       102.2       102.0       101.7       101.4       101.0       100.5       100.1       99.52    
        98.90       98.20       97.41       96.54       95.58       94.53       93.50       92.48       91.47       90.48    
        89.50       88.54       87.58       86.65       85.73       84.84       83.98       83.15       82.35       81.58    
        80.85       80.14       79.45       78.79       78.16       77.54       76.94       76.36       75.79       75.24    
        74.70       74.17       73.64       73.12       72.60       72.09       71.57       71.06       70.53       70.00    
  47  -1000.0     -1000.0     -1000.0       102.0       101.8       101.4       101.0       100.5       100.1       99.54    
        98.93       98.24       97.47       96.60       95.65       94.60       93.57       92.55       91.55       90.56    
        89.60       88.64       87.69       86.76       85.86       84.97       84.11       83.29       82.49       81.72    
        80.97       80.26       79.57       78.90       78.26       77.63       77.03       76.44       75.87       75.31    
        74.76       74.22       73.69       73.16       72.64       72.12       71.59       71.07       70.54       70.00    
  48  -1000.0     -1000.0     -1000.0     -1000.0       101.7       101.4       101.1       100.6       100.0       99.52    
        98.94       98.26       97.50       96.64       95.69       94.65       93.62       92.61       91.61       90.62    
        89.66       88.70       87.77       86.84       85.94       85.06       84.20       83.38       82.58       81.80    
        81.06       80.34       79.64       78.97       78.33       77.70       77.09       76.50       75.92       75.35    
        74.80       74.26       73.72       73.19       72.66       72.14       71.61       71.08       70.54       70.00    
  49  -1000.0     -1000.0     -1000.0     -1000.0     -1000.0       101.3       101.1       100.7       100.1       99.47    
        98.93       98.27       97.51       96.66       95.71       94.67       93.65       92.63       91.63       90.65    
        89.69       88.74       87.80       86.88       85.98       85.10       84.25       83.42       82.62       81.85    
        81.10       80.38       79.68       79.01       78.36       77.73       77.12       76.52       75.94       75.37    
        74.82       74.27       73.73       73.20       72.67       72.14       71.62       71.08       70.55       70.00    
  50  -1000.0     -1000.0     -1000.0     -1000.0     -1000.0     -1000.0     -1000.0     -1000.0     -1000.0     -1000.0    
      -1000.0     -1000.0     -1000.0     -1000.0     -1000.0     -1000.0     -1000.0     -1000.0     -1000.0     -1000.0    
      -1000.0     -1000.0     -1000.0     -1000.0     -1000.0     -1000.0     -1000.0     -1000.0     -1000.0     -1000.0    
      -1000.0     -1000.0     -1000.0     -1000.0     -1000.0     -1000.0     -1000.0     -1000.0     -1000.0     -1000.0    
      -1000.0     -1000.0     -1000.0     -1000.0     -1000.0     -1000.0     -1000.0     -1000.0     -1000.0       70.00    
1
              HEAD IN LAYER   2 AT END OF TIME STEP   1 IN STRESS PERIOD    1
  ---------------------------------------------------------------------------

            1           2           3           4           5           6           7           8           9          10
           11          12          13          14          15          16          17          18          19          20
           21          22          23          24          25          26          27          28          29          30
           31          32          33          34          35          36          37          38          39          40
           41          42          43          44          45          46          47          48          49          50
 ........................................................................................................................
   1  -1000.0     -1000.0     -1000.0     -1000.0     -1000.0     -1000.0     -1000.0     -1000.0     -1000.0     -1000.0    
      -1000.0     -1000.0     -1000.0     -1000.0     -1000.0     -1000.0     -1000.0     -1000.0     -1000.0     -1000.0    
      -1000.0     -1000.0     -1000.0     -1000.0     -1000.0     -1000.0     -1000.0     -1000.0     -1000.0     -1000.0    
      -1000.0     -1000.0     -1000.0     -1000.0     -1000.0     -1000.0     -1000.0     -1000.0     -1000.0     -1000.0    
      -1000.0     -1000.0     -1000.0     -1000.0     -1000.0     -1000.0     -1000.0     -1000.0     -1000.0       70.00    
   2  -1000.0     -1000.0     -1000.0     -1000.0     -1000.0     -1000.0     -1000.0       99.51       98.96       98.31    
        97.77       97.11       96.36       95.52       94.59       93.57       92.57       91.60       90.64       89.70    
        88.77       87.87       86.99       86.14       85.31       84.51       83.72       82.96       82.22       81.50    
        80.81       80.13       79.47       78.82       78.20       77.59       76.99       76.41       75.84       75.28    
        74.73       74.18       73.65       73.12       72.60       72.07       71.55       71.04       70.52       70.00    
   3  -1000.0     -1000.0     -1000.0     -1000.0     -1000.0     -1000.0       99.94       99.47       98.88       98.36    
        97.77       97.10       96.34       95.49       94.56       93.54       92.54       91.56       90.61       89.67    
        88.74       87.84       86.96       86.11       85.28       84.48       83.69       82.93       82.20       81.48    
        80.78       80.10       79.44       78.80       78.18       77.57       76.97       76.39       75.82       75.26    
        74.71       74.17       73.64       73.11       72.59       72.07       71.55       71.03       70.52       70.00    
   4  -1000.0     -1000.0     -1000.0     -1000.0     -1000.0       100.3       99.91       99.38       98.91       98.37    
        97.76       97.07       96.29       95.44       94.50       93.48       92.48       91.50       90.54       89.61    
        88.68       87.78       86.90       86.05       85.22       84.42       83.64       82.88       82.14       81.42    
        80.73       80.05       79.40       78.76       78.13       77.53       76.94       76.36       75.79       75.23    
        74.69       74.15       73.62       73.09       72.57       72.06       71.54       71.03       70.51       70.00    
   5  -1000.0     -1000.0     -1000.0     -1000.0       100.6       100.3       99.81       99.39       98.90       98.34    
        97.71       97.01       96.22       95.36       94.41       93.39       92.38       91.41       90.45       89.52    
        88.59       87.69       86.81       85.96       85.14       84.33       83.55       82.79       82.06       81.35    
        80.65       79.98       79.33       78.69       78.07       77.47       76.88       76.31       75.74       75.19    
        74.65       74.12       73.59       73.07       72.55       72.04       71.53       71.02       70.51       70.00    
   6  -1000.0     -1000.0     -1000.0       100.9       100.6       100.2       99.80       99.36       98.86       98.29    
        97.64       96.92       96.12       95.24       94.29       93.26       92.26       91.28       90.32       89.39    
        88.46       87.57       86.69       85.84       85.02       84.22       83.44       82.68       81.95       81.24    
        80.55       79.88       79.23       78.60       77.99       77.39       76.81       76.24       75.68       75.14    
        74.60       74.07       73.55       73.03       72.52       72.02       71.51       71.01       70.50       70.00    
   7  -1000.0     -1000.0       101.0       100.8       100.4       100.1       99.75       99.30       98.79       98.20    
        97.53       96.79       95.98       95.09       94.13       93.09       92.09       91.11       90.16       89.23    
        88.31       87.41       86.54       85.70       84.87       84.07       83.29       82.54       81.81       81.11    
        80.42       79.76       79.12       78.49       77.89       77.29       76.72       76.15       75.60       75.07    
        74.54       74.01       73.50       72.99       72.49       71.99       71.49       70.99       70.50       70.00    
   8  -1000.0       101.0       100.8       100.6       100.4       100.0       99.67       99.21       98.68       98.07    
        97.39       96.63       95.80       94.90       93.93       92.89       91.89       90.91       89.97       89.05    
        88.13       87.23       86.37       85.52       84.70       83.90       83.12       82.37       81.65       80.95    
        80.27       79.61       78.98       78.36       77.76       77.18       76.61       76.05       75.51       74.98    
        74.46       73.95       73.44       72.94       72.45       71.96       71.47       70.98       70.49       70.00    
   9  -1000.0       100.8       100.7       100.5       100.3       99.95       99.56       99.09       98.54       97.92    
        97.22       96.44       95.58       94.66       93.67       92.63       91.64       90.68       89.74       88.83    
        87.92       87.03       86.16       85.31       84.49       83.69       82.92       82.17       81.46       80.76    
        80.09       79.44       78.82       78.21       77.62       77.04       76.48       75.94       75.40       74.88    
        74.37       73.87       73.37       72.88       72.40       71.92       71.44       70.96       70.48       70.00    
  10  -1000.0       100.6       100.5       100.4       100.1       99.82       99.42       98.94       98.38       97.74    
        97.02       96.21       95.32       94.36       93.35       92.32       91.35       90.41       89.49       88.58    
        87.68       86.79       85.93       85.08       84.26       83.46       82.69       81.95       81.24       80.55    
        79.89       79.25       78.63       78.03       77.45       76.89       76.34       75.81       75.28       74.77    
        74.27       73.78       73.30       72.82       72.34       71.87       71.40       70.94       70.47       70.00    
  11  -1000.0       100.5       100.4       100.2       99.99       99.67       99.26       98.77       98.19       97.54    
        96.79       95.95       95.01       93.99       92.93       91.94       91.01       90.11       89.21       88.32    
        87.42       86.54       85.68       84.83       84.01       83.20       82.44       81.70       80.99       80.31    
        79.66       79.03       78.43       77.84       77.27       76.72       76.18       75.66       75.15       74.65    
        74.16       73.68       73.21       72.75       72.28       71.83       71.37       70.91       70.46       70.00    
  12  -1000.0       100.3       100.2       100.1       99.83       99.49       99.08       98.57       97.99       97.31    
        96.54       95.66       94.67       93.55       92.33       91.48       90.64       89.79       88.91       88.03    
        87.14       86.26       85.40       84.55       83.73       82.93       82.16       81.42       80.72       80.05    
        79.41       78.80       78.20       77.63       77.07       76.53       76.00       75.49       75.00       74.51    
        74.04       73.57       73.12       72.67       72.22       71.77       71.33       70.89       70.44       70.00    
  13  -1000.0       100.2       100.1       99.90       99.64       99.30       98.87       98.36       97.76       97.07    
        96.29       95.39       94.34       93.06       91.25       90.98       90.29       89.47       88.61       87.74    
        86.85       85.97       85.11       84.26       83.43       82.63       81.86       81.13       80.44       79.78    
        79.15       78.54       77.96       77.40       76.85       76.33       75.81       75.32       74.84       74.37    
        73.91       73.46       73.02       72.58       72.15       71.72       71.29       70.86       70.43       70.00    
  14  -1000.0       99.97       99.88       99.70       99.44       99.09       98.65       98.13       97.52       96.83    
        96.03       95.14       94.13       92.99       91.76       90.90       90.06       89.20       88.32       87.44    
        86.55       85.67       84.80       83.95       83.12       82.31       81.55       80.82       80.13       79.48    
        78.86       78.27       77.70       77.15       76.62       76.11       75.61       75.13       74.66       74.21    
        73.77       73.34       72.91       72.49       72.08       71.66       71.25       70.83       70.42       70.00    
  15  -1000.0       99.77       99.68       99.50       99.22       98.86       98.42       97.88       97.27       96.56    
        95.77       94.89       93.92       92.87       91.79       90.78       89.84       88.93       88.02       87.13    
        86.23       85.35       84.48       83.63       82.79       81.99       81.22       80.50       79.82       79.18    
        78.57       77.99       77.43       76.90       76.38       75.88       75.40       74.93       74.48       74.04    
        73.62       73.21       72.80       72.40       72.00       71.61       71.21       70.81       70.40       70.00    
  16  -1000.0       99.57       99.47       99.28       98.99       98.62       98.16       97.61       96.98       96.27    
        95.49       94.62       93.68       92.67       91.63       90.58       89.59       88.64       87.71       86.80    
        85.90       85.01       84.14       83.29       82.46       81.66       80.89       80.18       79.51       78.87    
        78.28       77.71       77.17       76.64       76.14       75.65       75.18       74.73       74.29       73.87    
        73.47       73.08       72.69       72.31       71.93       71.55       71.17       70.78       70.39       70.00    
  17  -1000.0       99.35       99.25       99.05       98.75       98.36       97.88       97.32       96.68       95.96    
        95.17       94.30       93.38       92.39       91.36       90.29       89.28       88.31       87.37       86.45    
        85.55       84.66       83.80       82.95       82.12       81.32       80.57       79.86       79.20       78.58    
        77.99       77.44       76.91       76.39       75.90       75.42       74.96       74.52       74.10       73.70    
        73.32       72.95       72.59       72.23       71.87       71.50       71.13       70.76       70.38       70.00    
  18  -1000.0       99.14       99.03       98.82       98.50       98.08       97.58       96.99       96.33       95.60    
        94.80       93.94       93.02       92.04       91.02       89.94       88.92       87.95       87.00       86.08    
        85.18       84.30       83.44       82.60       81.78       80.99       80.25       79.55       78.91       78.30    
        77.73       77.18       76.66       76.16       75.68       75.21       74.76       74.33       73.92       73.54    
        73.18       72.83       72.49       72.16       71.81       71.46       71.11       70.74       70.37       70.00    
  19  -1000.0       98.94       98.82       98.58       98.23       97.79       97.25       96.64       95.95       95.20    
        94.39       93.52       92.59       91.62       90.59       89.52       88.50       87.53       86.60       85.69    
        84.79       83.92       83.07       82.24       81.44       80.67       79.95       79.27       78.64       78.05    
        77.49       76.96       76.45       75.96       75.49       75.02       74.57       74.15       73.75       73.39    
        73.06       72.74       72.42       72.10       71.78       71.44       71.10       70.74       70.37       70.00    
  20  -1000.0       98.76       98.62       98.35       97.96       97.47       96.90       96.25       95.53       94.75    
        93.91       93.03       92.10       91.12       90.09       89.02       88.02       87.07       86.18       85.28    
        84.39       83.53       82.70       81.89       81.12       80.37       79.67       79.02       78.41       77.84    
        77.30       76.79       76.29       75.81       75.34       74.88       74.43       74.00       73.61       73.27    
        72.97       72.67       72.38       72.08       71.77       71.45       71.11       70.75       70.38       70.00    
  21  -1000.0       98.62       98.45       98.13       97.69       97.14       96.51       95.81       95.05       94.24    
        93.38       92.47       91.53       90.54       89.51       88.45       87.45       86.55       85.77       84.88    
        83.96       83.12       82.33       81.56       80.81       80.10       79.44       78.81       78.23       77.68    
        77.16       76.67       76.18       75.71       75.25       74.79       74.34       73.91       73.52       73.21    
        72.93       72.66       72.39       72.11       71.81       71.49       71.15       70.79       70.40       70.00    
  22  -1000.0       98.55       98.33       97.94       97.41       96.79       96.08       95.32       94.51       93.65    
        92.76       91.83       90.87       89.88       88.85       87.78       86.79       85.88       85.11       84.24    
        83.46       82.71       81.97       81.25       80.55       79.88       79.25       78.66       78.11       77.59    
        77.09       76.61       76.14       75.68       75.23       74.78       74.33       73.90       73.49       73.21    
        72.96       72.71       72.46       72.18       71.89       71.58       71.23       70.85       70.44       70.00    
  23  -1000.0       98.71       98.41       97.91       97.28       96.56       95.77       94.94       94.08       93.18    
        92.25       91.30       90.32       89.32       88.29       87.22       86.22       85.28       84.41       83.55    
        82.98       82.34       81.67       81.00       80.34       79.72       79.13       78.57       78.05       77.55    
        77.07       76.60       76.15       75.71       75.27       74.84       74.41       74.00       73.63       73.33    
        73.07       72.82       72.57       72.30       72.02       71.70       71.35       70.95       70.50       70.00    
  24  -1000.0       99.20       98.74       98.07       97.30       96.46       95.58       94.68       93.75       92.81    
        91.85       90.87       89.88       88.88       87.85       86.79       85.78       84.82       83.90       83.04    
        82.62       82.08       81.47       80.84       80.22       79.62       79.06       78.53       78.03       77.55    
        77.09       76.64       76.20       75.77       75.35       74.93       74.53       74.14       73.79       73.49    
        73.22       72.96       72.70       72.43       72.15       71.83       71.48       71.07       70.58       70.00    
  25  -1000.0       100.2       99.36       98.42       97.46       96.49       95.51       94.52       93.53       92.54    
        91.55       90.55       89.55       88.55       87.55       86.53       85.52       84.53       83.54       82.59    
        82.41       81.95       81.38       80.77       80.16       79.58       79.03       78.51       78.02       77.55    
        77.10       76.66       76.23       75.81       75.40       75.00       74.61       74.24       73.90       73.59    
        73.31       73.04       72.78       72.51       72.22       71.90       71.55       71.15       70.65       70.00    
  26  -1000.0       99.19       98.74       98.07       97.31       96.48       95.61       94.71       93.79       92.85    
        91.89       90.91       89.92       88.91       87.87       86.79       85.75       84.75       83.80       82.93    
        82.53       82.00       81.40       80.77       80.15       79.55       78.98       78.45       77.95       77.46    
        77.00       76.56       76.13       75.72       75.31       74.92       74.54       74.18       73.84       73.53    
        73.24       72.96       72.68       72.40       72.10       71.79       71.44       71.04       70.56       70.00    
  27  -1000.0       98.72       98.42       97.93       97.31       96.60       95.83       95.01       94.16       93.26    
        92.34       91.39       90.41       89.39       88.33       87.22       86.17       85.16       84.20       83.32    
        82.80       82.20       81.55       80.88       80.22       79.59       78.98       78.42       77.89       77.39    
        76.91       76.46       76.03       75.61       75.20       74.81       74.43       74.08       73.74       73.42    
        73.11       72.82       72.53       72.24       71.94       71.62       71.27       70.89       70.47       70.00    
  28  -1000.0       98.61       98.40       98.01       97.49       96.88       96.20       95.45       94.65       93.81    
        92.92       91.99       91.02       90.01       88.94       87.82       86.75       85.73       84.76       83.84    
        83.22       82.53       81.82       81.10       80.39       79.70       79.06       78.46       77.90       77.37    
        76.88       76.41       75.96       75.53       75.12       74.73       74.35       73.99       73.65       73.32    
        73.00       72.69       72.39       72.09       71.78       71.47       71.13       70.77       70.39       70.00    
  29  -1000.0       98.78       98.61       98.30       97.86       97.33       96.71       96.03       95.29       94.49    
        93.63       92.73       91.78       90.77       89.70       88.58       87.50       86.47       85.48       84.53    
        83.74       82.96       82.18       81.40       80.64       79.91       79.21       78.57       77.98       77.42    
        76.91       76.42       75.96       75.53       75.11       74.71       74.32       73.96       73.60       73.26    
        72.94       72.62       72.30       71.99       71.68       71.36       71.03       70.69       70.35       70.00    
  30  -1000.0       99.00       98.87       98.60       98.22       97.75       97.19       96.56       95.86       95.09    
        94.27       93.39       92.45       91.46       90.39       89.27       88.18       87.14       86.13       85.16    
        84.28       83.43       82.59       81.76       80.95       80.17       79.44       78.76       78.13       77.55    
        77.02       76.51       76.04       75.59       75.16       74.75       74.36       73.98       73.62       73.27    
        72.93       72.60       72.27       71.95       71.63       71.31       70.98       70.65       70.33       70.00    
  31  -1000.0       99.27       99.15       98.92       98.58       98.15       97.63       97.04       96.37       95.64    
        94.85       93.99       93.07       92.08       91.02       89.89       88.80       87.75       86.73       85.74    
        84.81       83.90       83.02       82.15       81.30       80.48       79.71       79.01       78.35       77.75    
        77.19       76.67       76.18       75.72       75.28       74.86       74.45       74.06       73.69       73.33    
        72.98       72.63       72.29       71.96       71.63       71.30       70.97       70.65       70.32       70.00    
  32  -1000.0       99.55       99.44       99.23       98.92       98.53       98.04       97.48       96.85       96.14    
        95.37       94.53       93.62       92.64       91.59       90.47       89.37       88.31       87.28       86.28    
        85.31       84.37       83.45       82.55       81.67       80.83       80.03       79.30       78.62       78.00    
        77.42       76.88       76.38       75.90       75.45       75.01       74.60       74.20       73.81       73.43    
        73.07       72.71       72.36       72.01       71.67       71.33       70.99       70.66       70.33       70.00    
  33  -1000.0       99.83       99.74       99.54       99.26       98.88       98.43       97.89       97.28       96.60    
        95.84       95.02       94.12       93.15       92.11       90.99       89.90       88.83       87.79       86.78    
        85.79       84.82       83.88       82.96       82.06       81.19       80.38       79.62       78.93       78.29    
        77.69       77.14       76.62       76.13       75.66       75.21       74.78       74.37       73.97       73.58    
        73.19       72.82       72.45       72.09       71.73       71.38       71.03       70.69       70.34       70.00    
  34  -1000.0       100.1       100.0       99.84       99.58       99.22       98.79       98.27       97.68       97.02    
        96.28       95.47       94.58       93.62       92.58       91.47       90.37       89.31       88.26       87.24    
        86.23       85.25       84.29       83.36       82.44       81.56       80.74       79.97       79.26       78.60    
        78.00       77.43       76.89       76.39       75.90       75.44       75.00       74.56       74.15       73.74    
        73.34       72.95       72.57       72.19       71.81       71.45       71.08       70.72       70.36       70.00    
  35  -1000.0       100.4       100.3       100.1       99.88       99.54       99.12       98.62       98.04       97.40    
        96.67       95.87       95.00       94.05       93.02       91.90       90.81       89.74       88.70       87.67    
        86.65       85.66       84.70       83.75       82.83       81.94       81.11       80.33       79.61       78.94    
        78.32       77.73       77.18       76.66       76.16       75.68       75.22       74.77       74.34       73.91    
        73.50       73.09       72.69       72.29       71.90       71.52       71.13       70.75       70.38       70.00    
  36  -1000.0       100.7       100.6       100.4       100.2       99.83       99.42       98.94       98.38       97.74    
        97.03       96.24       95.38       94.43       93.41       92.30       91.21       90.15       89.10       88.07    
        87.05       86.05       85.08       84.13       83.21       82.31       81.47       80.69       79.96       79.28    
        78.64       78.05       77.48       76.94       76.43       75.93       75.45       74.99       74.53       74.09    
        73.65       73.23       72.81       72.40       71.99       71.59       71.19       70.79       70.39       70.00    
  37  -1000.0       100.9       100.8       100.7       100.4       100.1       99.70       99.23       98.68       98.05    
        97.35       96.58       95.72       94.78       93.77       92.66       91.58       90.51       89.47       88.44    
        87.42       86.42       85.45       84.50       83.57       82.68       81.84       81.05       80.31       79.62    
        78.97       78.36       77.78       77.22       76.69       76.18       75.68       75.19       74.72       74.26    
        73.81       73.37       72.93       72.50       72.08       71.66       71.24       70.83       70.41       70.00    
  38  -1000.0       101.1       101.0       100.9       100.7       100.3       99.95       99.49       98.95       98.34    
        97.64       96.88       96.03       95.10       94.09       92.99       91.91       90.85       89.81       88.78    
        87.76       86.76       85.79       84.84       83.92       83.03       82.18       81.39       80.65       79.95    
        79.29       78.66       78.07       77.50       76.95       76.41       75.90       75.40       74.91       74.43    
        73.96       73.50       73.05       72.60       72.16       71.73       71.29       70.86       70.43       70.00    
  39  -1000.0       101.3       101.2       101.1       100.9       100.6       100.2       99.72       99.19       98.59    
        97.90       97.14       96.30       95.38       94.38       93.29       92.21       91.15       90.12       89.09    
        88.07       87.08       86.11       85.16       84.25       83.36       82.52       81.72       80.97       80.26    
        79.59       78.95       78.34       77.75       77.19       76.64       76.11       75.59       75.08       74.59    
        74.10       73.63       73.16       72.70       72.24       71.79       71.34       70.89       70.45       70.00    
  40  -1000.0       101.5       101.4       101.3       101.1       100.8       100.4       99.93       99.41       98.81    
        98.13       97.38       96.55       95.64       94.64       93.55       92.48       91.43       90.39       89.38    
        88.36       87.37       86.41       85.47       84.55       83.67       82.83       82.03       81.28       80.56    
        79.88       79.22       78.60       77.99       77.41       76.85       76.30       75.76       75.24       74.73    
        74.24       73.75       73.26       72.79       72.32       71.85       71.38       70.92       70.46       70.00    
  41  -1000.0       101.7       101.6       101.4       101.2       100.9       100.6       100.1       99.59       99.00    
        98.33       97.59       96.76       95.86       94.86       93.79       92.72       91.67       90.64       89.63    
        88.62       87.64       86.68       85.74       84.83       83.95       83.11       82.31       81.55       80.83    
        80.14       79.47       78.83       78.21       77.61       77.04       76.47       75.93       75.39       74.87    
        74.36       73.85       73.36       72.87       72.38       71.90       71.43       70.95       70.47       70.00    
  42  -1000.0       101.9       101.7       101.6       101.4       101.1       100.7       100.3       99.75       99.16    
        98.50       97.77       96.95       96.05       95.06       93.99       92.93       91.89       90.87       89.86    
        88.85       87.87       86.92       85.99       85.08       84.21       83.37       82.57       81.81       81.07    
        80.37       79.69       79.04       78.41       77.80       77.21       76.63       76.07       75.52       74.99    
        74.47       73.95       73.44       72.94       72.44       71.95       71.46       70.97       70.49       70.00    
  43  -1000.0       102.0       101.9       101.7       101.5       101.2       100.8       100.4       99.87       99.30    
        98.64       97.92       97.11       96.21       95.23       94.17       93.12       92.08       91.06       90.06    
        89.06       88.08       87.13       86.21       85.31       84.44       83.60       82.80       82.03       81.29    
        80.57       79.89       79.22       78.58       77.96       77.36       76.77       76.20       75.64       75.10    
        74.56       74.04       73.52       73.00       72.50       71.99       71.49       71.00       70.50       70.00    
  44  -1000.0     -1000.0       102.1       101.9       101.5       101.2       100.9       100.5       99.97       99.40    
        98.76       98.04       97.23       96.35       95.38       94.32       93.27       92.24       91.22       90.23    
        89.23       88.26       87.31       86.39       85.50       84.63       83.80       82.99       82.22       81.47    
        80.75       80.05       79.38       78.73       78.10       77.49       76.89       76.31       75.74       75.19    
        74.64       74.11       73.58       73.06       72.54       72.03       71.52       71.01       70.51       70.00    
  45  -1000.0     -1000.0     -1000.0       102.0       101.7       101.3       100.9       100.5       100.0       99.48    
        98.84       98.13       97.34       96.46       95.49       94.44       93.40       92.37       91.36       90.37    
        89.37       88.41       87.47       86.55       85.66       84.80       83.96       83.15       82.37       81.62    
        80.90       80.19       79.51       78.86       78.22       77.60       76.99       76.40       75.83       75.27    
        74.71       74.17       73.64       73.11       72.58       72.06       71.55       71.03       70.52       70.00    
  46  -1000.0     -1000.0     -1000.0     -1000.0       101.7       101.4       101.0       100.5       100.1       99.52    
        98.90       98.20       97.41       96.54       95.58       94.53       93.50       92.48       91.47       90.48    
        89.49       88.53       87.59       86.68       85.79       84.92       84.09       83.28       82.50       81.74    
        81.01       80.31       79.62       78.96       78.31       77.68       77.07       76.48       75.90       75.33    
        74.77       74.22       73.68       73.14       72.61       72.09       71.56       71.04       70.52       70.00    
  47  -1000.0     -1000.0     -1000.0     -1000.0     -1000.0       101.4       101.0       100.5       100.1       99.54    
        98.93       98.24       97.47       96.60       95.65       94.60       93.57       92.55       91.55       90.56    
        89.58       88.62       87.68       86.77       85.88       85.02       84.19       83.38       82.59       81.83    
        81.10       80.39       79.70       79.03       78.38       77.75       77.14       76.54       75.95       75.38    
        74.81       74.26       73.71       73.17       72.64       72.11       71.58       71.05       70.53       70.00    
  48  -1000.0     -1000.0     -1000.0     -1000.0     -1000.0     -1000.0       101.1       100.6       100.0       99.52    
        98.94       98.26       97.50       96.64       95.69       94.65       93.62       92.61       91.61       90.62    
        89.64       88.68       87.74       86.83       85.95       85.09       84.25       83.44       82.66       81.90    
        81.16       80.44       79.75       79.08       78.43       77.79       77.18       76.57       75.98       75.41    
        74.84       74.28       73.73       73.19       72.65       72.12       71.59       71.06       70.53       70.00    
  49  -1000.0     -1000.0     -1000.0     -1000.0     -1000.0     -1000.0     -1000.0       100.7       100.1       99.47    
        98.93       98.27       97.51       96.66       95.71       94.67       93.65       92.63       91.63       90.65    
        89.66       88.71       87.77       86.86       85.98       85.12       84.28       83.47       82.69       81.93    
        81.19       80.47       79.78       79.11       78.45       77.82       77.20       76.59       76.00       75.42    
        74.85       74.30       73.74       73.20       72.66       72.13       71.59       71.06       70.53       70.00    
  50  -1000.0     -1000.0     -1000.0     -1000.0     -1000.0     -1000.0     -1000.0     -1000.0     -1000.0     -1000.0    
      -1000.0     -1000.0     -1000.0     -1000.0     -1000.0     -1000.0     -1000.0     -1000.0     -1000.0     -1000.0    
      -1000.0     -1000.0     -1000.0     -1000.0     -1000.0     -1000.0     -1000.0     -1000.0     -1000.0     -1000.0    
      -1000.0     -1000.0     -1000.0     -1000.0     -1000.0     -1000.0     -1000.0     -1000.0     -1000.0     -1000.0    
      -1000.0     -1000.0     -1000.0     -1000.0     -1000.0     -1000.0     -1000.0     -1000.0     -1000.0       70.00    
1
              HEAD IN LAYER   3 AT END OF TIME STEP   1 IN STRESS PERIOD    1
  ---------------------------------------------------------------------------

            1           2           3           4           5           6           7           8           9          10
           11          12          13          14          15          16          17          18          19          20
           21          22          23          24          25          26          27          28          29          30
           31          32          33          34          35          36          37          38          39          40
[...]
        83.36       83.07       82.70       82.27       81.80       81.30       80.77       80.21       79.64       79.05    
        78.45       77.82       77.18       76.51       75.80       75.02       74.16       73.20       72.22       72.27    
        72.30       72.23       72.07       71.85       71.59       71.30       70.99       70.67       70.34       70.00    
  24  -1000.0       99.20       98.74       98.07       97.30       96.46       95.58       94.68       93.75       92.81    
        91.85       90.87       89.88       88.88       87.85       86.79       85.79       84.82       83.90       83.05    
        83.01       82.83       82.54       82.16       81.72       81.23       80.71       80.17       79.61       79.03    
        78.44       77.83       77.20       76.55       75.87       75.16       74.42       73.68       73.04       72.75    
        72.56       72.37       72.15       71.90       71.62       71.32       71.01       70.68       70.34       70.00    
  25  -1000.0       100.2       99.36       98.42       97.46       96.49       95.51       94.52       93.54       92.54    
        91.55       90.55       89.55       88.55       87.55       86.53       85.52       84.53       83.54       82.59    
        82.82       82.73       82.47       82.11       81.69       81.21       80.71       80.17       79.62       79.04    
        78.46       77.86       77.24       76.62       75.98       75.32       74.67       74.05       73.51       73.12    
        72.82       72.54       72.26       71.98       71.67       71.36       71.03       70.69       70.35       70.00    
  26  -1000.0       99.19       98.74       98.07       97.31       96.48       95.61       94.71       93.79       92.85    
        91.89       90.91       89.92       88.91       87.87       86.79       85.75       84.75       83.80       82.94    
        82.94       82.79       82.52       82.15       81.72       81.25       80.74       80.21       79.65       79.08    
        78.50       77.92       77.32       76.71       76.10       75.49       74.90       74.33       73.83       73.40    
        73.04       72.70       72.38       72.06       71.73       71.40       71.06       70.71       70.36       70.00    
  27  -1000.0       98.72       98.42       97.93       97.31       96.60       95.83       95.01       94.16       93.26    
        92.34       91.39       90.41       89.39       88.33       87.22       86.17       85.16       84.20       83.32    
        83.21       82.99       82.67       82.27       81.82       81.33       80.82       80.28       79.72       79.15    
        78.58       78.00       77.41       76.82       76.23       75.65       75.09       74.56       74.07       73.62    
        73.22       72.85       72.49       72.14       71.79       71.44       71.09       70.73       70.36       70.00    
  28  -1000.0       98.61       98.40       98.01       97.49       96.88       96.20       95.45       94.65       93.81    
        92.92       91.99       91.02       90.01       88.94       87.82       86.75       85.73       84.76       83.84    
        83.61       83.29       82.90       82.46       81.98       81.47       80.93       80.38       79.82       79.25    
        78.67       78.09       77.52       76.94       76.37       75.81       75.26       74.75       74.26       73.80    
        73.38       72.98       72.60       72.23       71.86       71.49       71.12       70.75       70.37       70.00    
  29  -1000.0       98.78       98.61       98.30       97.86       97.33       96.71       96.03       95.29       94.49    
        93.63       92.73       91.78       90.77       89.70       88.58       87.50       86.47       85.48       84.53    
        84.10       83.66       83.20       82.70       82.18       81.64       81.08       80.52       79.94       79.37    
        78.79       78.21       77.64       77.07       76.50       75.95       75.42       74.91       74.42       73.96    
        73.52       73.10       72.70       72.31       71.92       71.53       71.15       70.77       70.38       70.00    
  30  -1000.0       99.00       98.87       98.60       98.22       97.75       97.19       96.56       95.86       95.09    
        94.27       93.39       92.45       91.46       90.39       89.27       88.18       87.14       86.13       85.16    
        84.61       84.07       83.53       82.98       82.42       81.84       81.26       80.68       80.09       79.51    
        78.92       78.34       77.77       77.20       76.64       76.10       75.57       75.06       74.57       74.10    
        73.65       73.21       72.79       72.38       71.98       71.58       71.18       70.79       70.39       70.00    
  31  -1000.0       99.27       99.15       98.92       98.58       98.15       97.63       97.04       96.37       95.64    
        94.85       93.99       93.07       92.08       91.02       89.89       88.80       87.75       86.73       85.74    
        85.10       84.49       83.88       83.28       82.68       82.07       81.47       80.86       80.26       79.66    
        79.07       78.49       77.91       77.34       76.78       76.24       75.71       75.20       74.70       74.22    
        73.76       73.32       72.88       72.46       72.04       71.63       71.22       70.81       70.40       70.00    
  32  -1000.0       99.55       99.44       99.23       98.92       98.53       98.04       97.48       96.85       96.14    
        95.37       94.53       93.62       92.64       91.59       90.47       89.37       88.31       87.28       86.28    
        85.58       84.90       84.24       83.59       82.95       82.32       81.69       81.06       80.45       79.84    
        79.23       78.64       78.06       77.49       76.93       76.38       75.85       75.33       74.83       74.34    
        73.87       73.41       72.97       72.53       72.10       71.67       71.25       70.83       70.42       70.00    
  33  -1000.0       99.83       99.74       99.54       99.26       98.88       98.43       97.89       97.28       96.60    
        95.84       95.02       94.12       93.15       92.11       90.99       89.90       88.83       87.79       86.78    
        86.03       85.30       84.60       83.91       83.24       82.57       81.92       81.28       80.64       80.02    
        79.40       78.80       78.21       77.64       77.07       76.52       75.98       75.46       74.95       74.46    
        73.98       73.51       73.05       72.60       72.16       71.72       71.28       70.85       70.43       70.00    
  34  -1000.0       100.1       100.0       99.84       99.58       99.22       98.79       98.27       97.68       97.02    
        96.28       95.47       94.58       93.62       92.58       91.47       90.37       89.31       88.26       87.24    
        86.45       85.69       84.95       84.23       83.52       82.83       82.16       81.49       80.84       80.21    
        79.58       78.97       78.37       77.79       77.22       76.66       76.12       75.59       75.07       74.57    
        74.08       73.60       73.13       72.67       72.21       71.76       71.32       70.88       70.44       70.00    
  35  -1000.0       100.4       100.3       100.1       99.87       99.54       99.12       98.62       98.04       97.40    
        96.67       95.87       95.00       94.05       93.02       91.90       90.81       89.74       88.70       87.67    
        86.85       86.05       85.28       84.53       83.80       83.09       82.39       81.71       81.05       80.40    
        79.76       79.14       78.53       77.94       77.36       76.80       76.25       75.71       75.19       74.67    
        74.17       73.68       73.20       72.73       72.27       71.81       71.35       70.90       70.45       70.00    
  36  -1000.0       100.7       100.6       100.4       100.2       99.83       99.42       98.94       98.38       97.74    
        97.03       96.24       95.38       94.43       93.41       92.30       91.21       90.15       89.10       88.07    
        87.22       86.40       85.60       84.83       84.08       83.34       82.63       81.93       81.25       80.59    
        79.94       79.31       78.69       78.09       77.50       76.93       76.37       75.83       75.30       74.78    
        74.27       73.77       73.28       72.79       72.32       71.85       71.38       70.92       70.46       70.00    
  37  -1000.0       100.9       100.8       100.7       100.4       100.1       99.70       99.23       98.68       98.05    
        97.35       96.58       95.72       94.78       93.77       92.66       91.58       90.51       89.47       88.44    
        87.57       86.73       85.91       85.11       84.34       83.59       82.86       82.14       81.45       80.77    
        80.12       79.47       78.85       78.24       77.64       77.06       76.50       75.94       75.40       74.87    
        74.35       73.85       73.35       72.85       72.37       71.89       71.41       70.94       70.47       70.00    
  38  -1000.0       101.1       101.0       100.9       100.7       100.3       99.95       99.49       98.95       98.34    
        97.64       96.88       96.03       95.10       94.09       92.99       91.91       90.85       89.81       88.78    
        87.89       87.03       86.19       85.38       84.59       83.82       83.08       82.35       81.64       80.96    
        80.29       79.64       79.00       78.38       77.78       77.19       76.61       76.05       75.50       74.97    
        74.44       73.92       73.41       72.91       72.42       71.93       71.44       70.96       70.48       70.00    
  39  -1000.0       101.3       101.2       101.1       100.9       100.6       100.2       99.72       99.19       98.59    
        97.90       97.14       96.30       95.38       94.38       93.29       92.21       91.15       90.12       89.09    
        88.19       87.31       86.46       85.63       84.82       84.04       83.28       82.55       81.83       81.13    
        80.45       79.79       79.15       78.52       77.91       77.31       76.73       76.16       75.60       75.05    
        74.52       73.99       73.47       72.96       72.46       71.96       71.47       70.98       70.49       70.00    
  40  -1000.0       101.5       101.4       101.3       101.1       100.8       100.4       99.93       99.41       98.81    
        98.13       97.38       96.55       95.63       94.64       93.55       92.48       91.43       90.39       89.38    
        88.46       87.56       86.70       85.86       85.04       84.25       83.48       82.73       82.00       81.29    
        80.60       79.94       79.28       78.65       78.03       77.42       76.83       76.25       75.69       75.14    
        74.59       74.06       73.53       73.01       72.50       72.00       71.49       70.99       70.50       70.00    
  41  -1000.0       101.7       101.6       101.4       101.2       100.9       100.6       100.1       99.59       99.00    
        98.33       97.59       96.76       95.86       94.86       93.78       92.72       91.67       90.64       89.63    
        88.70       87.80       86.92       86.07       85.24       84.44       83.66       82.90       82.16       81.44    
        80.75       80.07       79.41       78.77       78.14       77.53       76.93       76.34       75.77       75.21    
        74.66       74.12       73.59       73.06       72.54       72.03       71.52       71.01       70.50       70.00    
  42  -1000.0     -1000.0       101.7       101.6       101.4       101.1       100.7       100.3       99.75       99.16    
        98.50       97.77       96.95       96.05       95.06       93.99       92.93       91.89       90.87       89.86    
        88.92       88.00       87.12       86.26       85.42       84.61       83.82       83.05       82.31       81.58    
        80.88       80.19       79.53       78.88       78.24       77.62       77.02       76.43       75.85       75.28    
        74.72       74.17       73.63       73.10       72.58       72.05       71.54       71.02       70.51       70.00    
  43  -1000.0     -1000.0     -1000.0       101.7       101.5       101.2       100.8       100.4       99.87       99.30    
        98.64       97.92       97.11       96.21       95.23       94.17       93.12       92.08       91.06       90.06    
        89.11       88.19       87.29       86.42       85.58       84.76       83.96       83.19       82.44       81.71    
        80.99       80.30       79.63       78.97       78.33       77.71       77.10       76.50       75.91       75.34    
        74.78       74.22       73.68       73.14       72.61       72.08       71.56       71.04       70.52       70.00    
  44  -1000.0     -1000.0     -1000.0     -1000.0       101.5       101.2       100.9       100.5       99.97       99.40    
        98.76       98.04       97.23       96.35       95.38       94.32       93.27       92.24       91.22       90.23    
        89.27       88.34       87.44       86.57       85.72       84.89       84.09       83.31       82.55       81.81    
        81.10       80.40       79.72       79.06       78.41       77.78       77.17       76.56       75.97       75.39    
        74.82       74.27       73.71       73.17       72.63       72.10       71.57       71.05       70.52       70.00    
  45  -1000.0     -1000.0     -1000.0     -1000.0     -1000.0       101.3       100.9       100.5       100.0       99.48    
        98.84       98.13       97.34       96.46       95.49       94.44       93.40       92.37       91.36       90.37    
        89.41       88.47       87.57       86.69       85.83       85.00       84.19       83.41       82.65       81.90    
        81.18       80.48       79.80       79.13       78.48       77.84       77.22       76.62       76.02       75.44    
        74.87       74.30       73.75       73.20       72.66       72.12       71.59       71.06       70.53       70.00    
  46  -1000.0     -1000.0     -1000.0     -1000.0     -1000.0     -1000.0       101.0       100.5       100.1       99.52    
        98.90       98.20       97.41       96.54       95.58       94.53       93.50       92.48       91.47       90.48    
        89.52       88.58       87.67       86.78       85.92       85.09       84.28       83.49       82.72       81.98    
        81.25       80.55       79.86       79.19       78.53       77.89       77.27       76.66       76.06       75.47    
        74.90       74.33       73.77       73.22       72.67       72.13       71.60       71.06       70.53       70.00    
  47  -1000.0     -1000.0     -1000.0     -1000.0     -1000.0     -1000.0     -1000.0       100.5       100.1       99.54    
        98.93       98.24       97.47       96.60       95.65       94.60       93.57       92.55       91.55       90.56    
        89.60       88.66       87.74       86.86       85.99       85.16       84.34       83.55       82.78       82.03    
        81.30       80.59       79.90       79.23       78.57       77.93       77.31       76.69       76.09       75.50    
        74.92       74.35       73.79       73.24       72.69       72.14       71.60       71.07       70.53       70.00    
  48  -1000.0     -1000.0     -1000.0     -1000.0     -1000.0     -1000.0     -1000.0     -1000.0       100.0       99.52    
        98.94       98.26       97.50       96.64       95.69       94.65       93.62       92.61       91.61       90.62    
        89.65       88.71       87.80       86.91       86.04       85.20       84.39       83.59       82.82       82.07    
        81.34       80.63       79.94       79.26       78.60       77.96       77.33       76.71       76.11       75.52    
        74.94       74.37       73.80       73.25       72.70       72.15       71.61       71.07       70.54       70.00    
  49  -1000.0     -1000.0     -1000.0     -1000.0     -1000.0     -1000.0     -1000.0     -1000.0     -1000.0       99.47    
        98.93       98.27       97.51       96.66       95.71       94.67       93.65       92.63       91.63       90.65    
        89.68       88.74       87.82       86.93       86.07       85.22       84.41       83.61       82.84       82.09    
        81.36       80.64       79.95       79.28       78.62       77.97       77.34       76.73       76.12       75.53    
        74.95       74.37       73.81       73.25       72.70       72.16       71.61       71.07       70.54       70.00    
  50  -1000.0     -1000.0     -1000.0     -1000.0     -1000.0     -1000.0     -1000.0     -1000.0     -1000.0     -1000.0    
      -1000.0     -1000.0     -1000.0     -1000.0     -1000.0     -1000.0     -1000.0     -1000.0     -1000.0     -1000.0    
      -1000.0     -1000.0     -1000.0     -1000.0     -1000.0     -1000.0     -1000.0     -1000.0     -1000.0     -1000.0    
      -1000.0     -1000.0     -1000.0     -1000.0     -1000.0     -1000.0     -1000.0     -1000.0     -1000.0     -1000.0    
      -1000.0     -1000.0     -1000.0     -1000.0     -1000.0     -1000.0     -1000.0     -1000.0     -1000.0       70.00    

 HEAD WILL BE SAVED ON UNIT   51 AT END OF TIME STEP    1, STRESS PERIOD    1

 DRAWDOWN WILL BE SAVED ON UNIT   52 AT END OF TIME STEP    1, STRESS PERIOD    1
1
  VOLUMETRIC BUDGET FOR ENTIRE MODEL AT END OF TIME STEP    1, STRESS PERIOD   1
  ------------------------------------------------------------------------------

     CUMULATIVE VOLUMES      L**3       RATES FOR THIS TIME STEP      L**3/T
     ------------------                 ------------------------

           IN:                                      IN:
           ---                                      ---
             STORAGE =           0.0000               STORAGE =           0.0000
       CONSTANT HEAD =           0.0000         CONSTANT HEAD =           0.0000
               WELLS =         375.0000                 WELLS =         375.0000
       RIVER LEAKAGE =       17342.4219         RIVER LEAKAGE =       17342.4219
                  ET =           0.0000                    ET =           0.0000
            RECHARGE =       33199.9961              RECHARGE =       33199.9961

            TOTAL IN =       50917.4180              TOTAL IN =       50917.4180

          OUT:                                     OUT:
          ----                                     ----
             STORAGE =           0.0000               STORAGE =           0.0000
       CONSTANT HEAD =        8404.6572         CONSTANT HEAD =        8404.6572
               WELLS =        3000.0000                 WELLS =        3000.0000
       RIVER LEAKAGE =        2854.8867         RIVER LEAKAGE =        2854.8867
                  ET =       36657.8359                    ET =       36657.8359
            RECHARGE =           0.0000              RECHARGE =           0.0000

           TOTAL OUT =       50917.3789             TOTAL OUT =       50917.3789

            IN - OUT =       3.9062E-02              IN - OUT =       3.9062E-02

 PERCENT DISCREPANCY =           0.00     PERCENT DISCREPANCY =           0.00






         TIME SUMMARY AT END OF TIME STEP    1 IN STRESS PERIOD    1
                    SECONDS     MINUTES      HOURS       DAYS        YEARS
                    -----------------------------------------------------------
   TIME STEP LENGTH  86400.      1440.0      24.000      1.0000     2.73785E-03
 STRESS PERIOD TIME  86400.      1440.0      24.000      1.0000     2.73785E-03
         TOTAL TIME  86400.      1440.0      24.000      1.0000     2.73785E-03
1

 Run end date and time (yyyy/mm/dd hh:mm:ss): 2026/02/25 16:25:12
 Elapsed run time: 11.772 Seconds

