                                  MODFLOW-2005     
      U.S. GEOLOGICAL SURVEY MODULAR FINITE-DIFFERENCE GROUND-WATER FLOW MODEL
                            VERSION 1.12.00 2/3/2017

 LIST FILE: static_ensemble_1222222.list
                         UNIT    2

 OPENING static_ensemble_1222222.dis
 FILE TYPE:DIS   UNIT   11   STATUS:OLD    
 FORMAT:FORMATTED              ACCESS:SEQUENTIAL          

 OPENING static_ensemble_1222222.bas
 FILE TYPE:BAS6   UNIT   13   STATUS:OLD    
 FORMAT:FORMATTED              ACCESS:SEQUENTIAL          

 OPENING static_ensemble_1222222.lpf
 FILE TYPE:LPF   UNIT   15   STATUS:OLD    
 FORMAT:FORMATTED              ACCESS:SEQUENTIAL          

 OPENING static_ensemble_1222222.evt
 FILE TYPE:EVT   UNIT   22   STATUS:OLD    
 FORMAT:FORMATTED              ACCESS:SEQUENTIAL          

 OPENING static_ensemble_1222222.rch
 FILE TYPE:RCH   UNIT   19   STATUS:OLD    
 FORMAT:FORMATTED              ACCESS:SEQUENTIAL          

 OPENING static_ensemble_1222222.riv
 FILE TYPE:RIV   UNIT   18   STATUS:OLD    
 FORMAT:FORMATTED              ACCESS:SEQUENTIAL          

 OPENING static_ensemble_1222222.wel
 FILE TYPE:WEL   UNIT   20   STATUS:OLD    
 FORMAT:FORMATTED              ACCESS:SEQUENTIAL          

 OPENING static_ensemble_1222222.oc
 FILE TYPE:OC   UNIT   14   STATUS:OLD    
 FORMAT:FORMATTED              ACCESS:SEQUENTIAL          

 OPENING static_ensemble_1222222.pcg
 FILE TYPE:PCG   UNIT   27   STATUS:OLD    
 FORMAT:FORMATTED              ACCESS:SEQUENTIAL          

 OPENING static_ensemble_1222222.cbc
 FILE TYPE:DATA(BINARY)   UNIT   53   STATUS:REPLACE
 FORMAT:UNFORMATTED            ACCESS:STREAM              

 OPENING static_ensemble_1222222.hds
 FILE TYPE:DATA(BINARY)   UNIT   51   STATUS:REPLACE
 FORMAT:UNFORMATTED            ACCESS:STREAM              

 OPENING static_ensemble_1222222.ddn
 FILE TYPE:DATA(BINARY)   UNIT   52   STATUS:REPLACE
 FORMAT:UNFORMATTED            ACCESS:STREAM              

 BAS -- BASIC PACKAGE, VERSION 7, 5/2/2005 INPUT READ FROM UNIT   13
 
 MODFLOW was compiled using mixed precision
 Precision of REAL variables:           6
 Precision of DOUBLE PRECISION variables:          15

 DISCRETIZATION INPUT DATA READ FROM UNIT   11
 # DIS package for MODFLOW-2005 generated by Flopy 3.9.5
    3 LAYERS        50 ROWS        50 COLUMNS
    1 STRESS PERIOD(S) IN SIMULATION
 MODEL TIME UNIT IS DAYS
 MODEL LENGTH UNIT IS METERS
  Confining bed flag for each layer:
   0   0   0

                     DELR =   1000.00    

                     DELC =   1000.00    



           TOP ELEVATION OF LAYER 1
 READING ON UNIT   11 WITH FORMAT: (50E15.6)           



             MODEL LAYER BOTTOM EL. FOR LAYER   1
 READING ON UNIT   11 WITH FORMAT: (50E15.6)           



             MODEL LAYER BOTTOM EL. FOR LAYER   2
 READING ON UNIT   11 WITH FORMAT: (50E15.6)           



             MODEL LAYER BOTTOM EL. FOR LAYER   3
 READING ON UNIT   11 WITH FORMAT: (50E15.6)           


 STRESS PERIOD     LENGTH       TIME STEPS     MULTIPLIER FOR DELT    SS FLAG
 ----------------------------------------------------------------------------
        1         1.000000          1                    1.000         SS

 STEADY-STATE SIMULATION



 
 # BAS6 package for MODFLOW-2005 generated by Flopy 3.9.5                        
 THE FREE FORMAT OPTION HAS BEEN SELECTED



                     BOUNDARY ARRAY FOR LAYER   1
 READING ON UNIT   13 WITH FORMAT: (50I10)             



                     BOUNDARY ARRAY FOR LAYER   2
 READING ON UNIT   13 WITH FORMAT: (50I10)             



                     BOUNDARY ARRAY FOR LAYER   3
 READING ON UNIT   13 WITH FORMAT: (50I10)             

 AQUIFER HEAD WILL BE SET TO  -999.99     AT ALL NO-FLOW NODES (IBOUND=0).



                       INITIAL HEAD FOR LAYER   1
 READING ON UNIT   13 WITH FORMAT: (50E15.6)           



                       INITIAL HEAD FOR LAYER   2
 READING ON UNIT   13 WITH FORMAT: (50E15.6)           



                       INITIAL HEAD FOR LAYER   3
 READING ON UNIT   13 WITH FORMAT: (50E15.6)           
 # OC package for MODFLOW-2005 generated by Flopy 3.9.5

 OUTPUT CONTROL IS SPECIFIED ONLY AT TIME STEPS FOR WHICH OUTPUT IS DESIRED
 COMPACT CELL-BY-CELL BUDGET FILES WILL BE WRITTEN
 AUXILIARY DATA WILL BE SAVED IN CELL-BY-CELL BUDGET FILES
 HEAD PRINT FORMAT CODE IS   0    DRAWDOWN PRINT FORMAT CODE IS   0
 HEADS WILL BE SAVED ON UNIT   51    DRAWDOWNS WILL BE SAVED ON UNIT   52

 LPF -- LAYER-PROPERTY FLOW PACKAGE, VERSION 7, 5/2/2005
         INPUT READ FROM UNIT   15
 # LPF package for MODFLOW-2005 generated by Flopy 3.9.5
 CELL-BY-CELL FLOWS WILL BE SAVED ON UNIT   53
 HEAD AT CELLS THAT CONVERT TO DRY= -1.00000E+30
 No named parameters
 STORAGECOEFFICIENT OPTION:
 Read storage coefficient rather than specific storage

   LAYER FLAGS:
 LAYER       LAYTYP        LAYAVG         CHANI        LAYVKA        LAYWET
 ---------------------------------------------------------------------------
    1             1             0     1.000E+00             0             0
    2             1             0     1.000E+00             0             0
    3             1             0     1.000E+00             0             0

   INTERPRETATION OF LAYER FLAGS:
                        INTERBLOCK     HORIZONTAL    DATA IN
         LAYER TYPE   TRANSMISSIVITY   ANISOTROPY   ARRAY VKA   WETTABILITY
 LAYER      (LAYTYP)      (LAYAVG)       (CHANI)      (LAYVKA)      (LAYWET)
 ---------------------------------------------------------------------------
    1   CONVERTIBLE      HARMONIC     1.000E+00    VERTICAL K  NON-WETTABLE
    2   CONVERTIBLE      HARMONIC     1.000E+00    VERTICAL K  NON-WETTABLE
    3   CONVERTIBLE      HARMONIC     1.000E+00    VERTICAL K  NON-WETTABLE

 WETTING CAPABILITY IS NOT ACTIVE IN ANY LAYER



              HYD. COND. ALONG ROWS FOR LAYER   1
 READING ON UNIT   15 WITH FORMAT: (50E15.6)           



                VERTICAL HYD. COND. FOR LAYER   1
 READING ON UNIT   15 WITH FORMAT: (50E15.6)           



              HYD. COND. ALONG ROWS FOR LAYER   2
 READING ON UNIT   15 WITH FORMAT: (50E15.6)           



                VERTICAL HYD. COND. FOR LAYER   2
 READING ON UNIT   15 WITH FORMAT: (50E15.6)           



              HYD. COND. ALONG ROWS FOR LAYER   3
 READING ON UNIT   15 WITH FORMAT: (50E15.6)           



                VERTICAL HYD. COND. FOR LAYER   3
 READING ON UNIT   15 WITH FORMAT: (50E15.6)           

 WEL -- WELL PACKAGE, VERSION 7, 5/2/2005 INPUT READ FROM UNIT   20
 # WEL package for MODFLOW-2005 generated by Flopy 3.9.5
 No named parameters
 MAXIMUM OF      3 ACTIVE WELLS AT ONE TIME


     0 Well parameters

 RIV -- RIVER PACKAGE, VERSION 7, 5/2/2005 INPUT READ FROM UNIT   18
 # RIV package for MODFLOW-2005 generated by Flopy 3.9.5
 No named parameters
 MAXIMUM OF     49 ACTIVE RIVER REACHES AT ONE TIME
 CELL-BY-CELL FLOWS WILL BE SAVED ON UNIT   53


     0 River parameters

 EVT -- EVAPOTRANSPIRATION PACKAGE, VERSION 7, 5/2/2005
         INPUT READ FROM UNIT   22
 # EVT package for MODFLOW-2005 generated by Flopy 3.9.5
 No named parameters
 OPTION 3 -- EVAPOTRANSPIRATION FROM HIGHEST ACTIVE NODE IN EACH VERTICAL COLUMN
 CELL-BY-CELL FLOWS WILL BE SAVED ON UNIT   53


     0 Evapotranspiration parameters

 RCH -- RECHARGE PACKAGE, VERSION 7, 5/2/2005 INPUT READ FROM UNIT   19
 # RCH package for MODFLOW-2005 generated by Flopy 3.9.5
 No named parameters
 OPTION 3 -- RECHARGE TO HIGHEST ACTIVE NODE IN EACH VERTICAL COLUMN
 CELL-BY-CELL FLOWS WILL BE SAVED ON UNIT   53


     0 Recharge parameters

 PCG -- CONJUGATE-GRADIENT SOLUTION PACKAGE, VERSION 7, 5/2/2005
 # PCG package for MODFLOW-2005 generated by Flopy 3.9.5
 MAXIMUM OF   5000 CALLS OF SOLUTION ROUTINE
 MAXIMUM OF    500 INTERNAL ITERATIONS PER CALL TO SOLUTION ROUTINE
 MATRIX PRECONDITIONING TYPE :    1



                                    SOLUTION BY THE CONJUGATE-GRADIENT METHOD
                                   -------------------------------------------
                    MAXIMUM NUMBER OF CALLS TO PCG ROUTINE =     5000
                        MAXIMUM ITERATIONS PER CALL TO PCG =      500
                               MATRIX PRECONDITIONING TYPE =        1
        RELAXATION FACTOR (ONLY USED WITH PRECOND. TYPE 1) =    0.97000E+00
 PARAMETER OF POLYNOMIAL PRECOND. = 2 (2) OR IS CALCULATED :        0
                         HEAD CHANGE CRITERION FOR CLOSURE =    0.10000E-04
                     RESIDUAL CHANGE CRITERION FOR CLOSURE =    0.10000E-04
            PCG HEAD AND RESIDUAL CHANGE PRINTOUT INTERVAL =      999
     PRINTING FROM SOLVER IS LIMITED(1) OR SUPPRESSED (>1) =        3
                            STEADY-STATE DAMPING PARAMETER =    0.10000E-01
                               TRANSIENT DAMPING PARAMETER =    0.10000E-01
1
                            STRESS PERIOD NO.    1, LENGTH =   1.000000    
                            -----------------------------------------------

                              NUMBER OF TIME STEPS =     1

                               MULTIPLIER FOR DELT =     1.000

                            INITIAL TIME STEP SIZE =   1.000000    

 WELL NO.  LAYER   ROW   COL   STRESS RATE         
 --------------------------------------------------
      1      3     22     39      -1500.    
      2      1     13     15      -4500.    
      3      1     25     26       375.0    

      3 WELLS

 REACH NO.  LAYER   ROW   COL     STAGE      CONDUCTANCE     BOTTOM EL.         
 -------------------------------------------------------------------------------
      1      1     25      2       100.5           500.0           98.00    
      2      1     25      3       99.50           500.0           97.00    
      3      1     25      4       98.50           500.0           96.00    
      4      1     25      5       97.50           500.0           95.00    
      5      1     25      6       96.50           500.0           94.00    
      6      1     25      7       95.50           500.0           93.00    
      7      1     25      8       94.50           500.0           92.00    
      8      1     25      9       93.50           500.0           91.00    
      9      1     25     10       92.50           500.0           90.00    
     10      1     25     11       91.50           500.0           89.00    
     11      1     25     12       90.50           500.0           88.00    
     12      1     25     13       89.50           500.0           87.00    
     13      1     25     14       88.50           500.0           86.00    
     14      1     25     15       87.50           500.0           85.00    
     15      1     25     16       86.50           500.0           84.00    
     16      1     25     17       85.50           500.0           83.00    
     17      1     25     18       84.50           500.0           82.00    
     18      1     25     19       83.50           500.0           81.00    
     19      1     25     20       82.50           500.0           80.00    
     20      1     25     21       81.50           500.0           79.00    
     21      1     25     22       80.50           500.0           78.00    
     22      1     25     23       79.50           500.0           77.00    
     23      1     25     24       78.50           500.0           76.00    
     24      1     25     25       77.50           500.0           75.00    
     25      1     25     26       77.40           500.0           74.90    
     26      1     25     27       77.30           500.0           74.80    
     27      1     25     28       77.20           500.0           74.70    
     28      1     25     29       77.10           500.0           74.60    
     29      1     25     30       77.00           500.0           74.50    
     30      1     25     31       76.90           500.0           74.40    
     31      1     25     32       76.80           500.0           74.30    
     32      1     25     33       76.70           500.0           74.20    
     33      1     25     34       76.60           500.0           74.10    
     34      1     25     35       76.50           500.0           74.00    
     35      1     25     36       76.40           500.0           73.90    
     36      1     25     37       76.30           500.0           73.80    
     37      1     25     38       76.20           500.0           73.70    
     38      1     25     39       76.10           500.0           73.60    
     39      1     25     40       76.00           500.0           73.50    
     40      1     25     41       75.90           500.0           73.40    
     41      1     25     42       75.80           500.0           73.30    
     42      1     25     43       75.70           500.0           73.20    
     43      1     25     44       75.60           500.0           73.10    
     44      1     25     45       75.50           500.0           73.00    
     45      1     25     46       75.40           500.0           72.90    
     46      1     25     47       75.30           500.0           72.80    
     47      1     25     48       75.20           500.0           72.70    
     48      1     25     49       75.10           500.0           72.60    
     49      1     25     50       75.00           500.0           72.50    

     49 RIVER REACHES



                         ET SURFACE
 READING ON UNIT   22 WITH FORMAT: (50E15.6)           



            EVAPOTRANSPIRATION RATE
 READING ON UNIT   22 WITH FORMAT: (50E15.6)           

         EXTINCTION DEPTH =   10.0000    



                           RECHARGE
 READING ON UNIT   19 WITH FORMAT: (50E15.6)           
 
 SOLVING FOR HEAD 

 OUTPUT CONTROL FOR STRESS PERIOD    1   TIME STEP    1
    SAVE HEAD FOR ALL LAYERS
    SAVE DRAWDOWN FOR ALL LAYERS
    SAVE BUDGET
    PRINT HEAD FOR ALL LAYERS
    PRINT BUDGET
 UBDSV2 SAVING "   CONSTANT HEAD" ON UNIT  53 AT TIME STEP  1, STRESS PERIOD   1
 UBDSV1 SAVING "FLOW RIGHT FACE " ON UNIT  53 AT TIME STEP  1, STRESS PERIOD   1
 UBDSV1 SAVING "FLOW FRONT FACE " ON UNIT  53 AT TIME STEP  1, STRESS PERIOD   1
 UBDSV1 SAVING "FLOW LOWER FACE " ON UNIT  53 AT TIME STEP  1, STRESS PERIOD   1
 UBDSV4 SAVING "   RIVER LEAKAGE" ON UNIT  53 AT TIME STEP  1, STRESS PERIOD   1
 UBDSV3 SAVING "              ET" ON UNIT  53 AT TIME STEP  1, STRESS PERIOD   1
 UBDSV3 SAVING "        RECHARGE" ON UNIT  53 AT TIME STEP  1, STRESS PERIOD   1
1
              HEAD IN LAYER   1 AT END OF TIME STEP   1 IN STRESS PERIOD    1
  ---------------------------------------------------------------------------

            1           2           3           4           5           6           7           8           9          10
           11          12          13          14          15          16          17          18          19          20
           21          22          23          24          25          26          27          28          29          30
           31          32          33          34          35          36          37          38          39          40
           41          42          43          44          45          46          47          48          49          50
 ........................................................................................................................
   1  -1000.0     -1000.0     -1000.0     -1000.0     -1000.0     -1000.0     -1000.0     -1000.0     -1000.0     -1000.0    
      -1000.0     -1000.0     -1000.0     -1000.0     -1000.0     -1000.0     -1000.0     -1000.0     -1000.0     -1000.0    
      -1000.0     -1000.0     -1000.0     -1000.0     -1000.0     -1000.0     -1000.0     -1000.0     -1000.0     -1000.0    
      -1000.0     -1000.0     -1000.0     -1000.0     -1000.0     -1000.0     -1000.0     -1000.0     -1000.0     -1000.0    
      -1000.0     -1000.0     -1000.0     -1000.0     -1000.0     -1000.0     -1000.0     -1000.0     -1000.0       70.00    
   2  -1000.0     -1000.0     -1000.0     -1000.0     -1000.0       92.72       92.49       92.12       91.67       91.15    
        90.73       90.23       89.67       89.06       88.39       87.68       86.99       86.32       85.68       85.05    
        84.44       83.86       83.28       82.72       82.17       81.63       81.10       80.57       80.06       79.55    
        79.05       78.55       78.06       77.57       77.09       76.61       76.13       75.66       75.19       74.72    
        74.25       73.78       73.32       72.85       72.38       71.91       71.43       70.96       70.48       70.00    
   3  -1000.0     -1000.0     -1000.0     -1000.0       93.06       92.82       92.50       92.11       91.62       91.20    
        90.74       90.23       89.65       89.03       88.36       87.65       86.96       86.29       85.65       85.03    
        84.42       83.84       83.26       82.70       82.16       81.62       81.09       80.56       80.05       79.54    
        79.04       78.54       78.05       77.56       77.08       76.60       76.13       75.66       75.18       74.72    
        74.25       73.78       73.31       72.84       72.38       71.91       71.43       70.96       70.48       70.00    
   4  -1000.0     -1000.0     -1000.0       93.39       93.17       92.87       92.51       92.07       91.67       91.23    
        90.74       90.20       89.62       88.98       88.31       87.59       86.90       86.24       85.60       84.98    
        84.38       83.80       83.23       82.67       82.13       81.59       81.06       80.54       80.03       79.52    
        79.02       78.53       78.04       77.55       77.07       76.59       76.12       75.65       75.18       74.71    
        74.24       73.77       73.31       72.84       72.37       71.90       71.43       70.96       70.48       70.00    
   5  -1000.0     -1000.0       93.68       93.49       93.22       92.90       92.49       92.12       91.71       91.24    
        90.72       90.16       89.56       88.91       88.22       87.50       86.81       86.15       85.52       84.91    
        84.32       83.74       83.18       82.63       82.09       81.55       81.03       80.51       80.00       79.49    
        78.99       78.50       78.01       77.53       77.05       76.57       76.10       75.63       75.16       74.70    
        74.23       73.77       73.30       72.83       72.37       71.90       71.43       70.96       70.48       70.00    
   6  -1000.0       93.87       93.74       93.53       93.25       92.89       92.55       92.16       91.72       91.23    
        90.68       90.09       89.46       88.80       88.10       87.37       86.69       86.04       85.42       84.82    
        84.24       83.67       83.12       82.57       82.04       81.51       80.98       80.47       79.96       79.46    
        78.96       78.47       77.98       77.50       77.02       76.55       76.08       75.61       75.14       74.68    
        74.22       73.75       73.29       72.83       72.36       71.89       71.43       70.95       70.48       70.00    
   7  -1000.0       93.88       93.76       93.55       93.24       92.95       92.59       92.18       91.72       91.19    
        90.62       90.00       89.33       88.64       87.93       87.20       86.53       85.89       85.29       84.70    
        84.14       83.59       83.04       82.50       81.97       81.45       80.93       80.42       79.91       79.41    
        78.92       78.43       77.94       77.46       76.99       76.52       76.05       75.58       75.12       74.66    
        74.20       73.74       73.28       72.82       72.35       71.89       71.42       70.95       70.48       70.00    
   8  -1000.0       93.89       93.77       93.55       93.30       92.99       92.62       92.19       91.70       91.15    
        90.53       89.87       89.16       88.43       87.70       86.97       86.31       85.70       85.13       84.57    
        84.02       83.49       82.95       82.42       81.90       81.38       80.86       80.36       79.85       79.36    
        78.86       78.38       77.90       77.42       76.95       76.48       76.02       75.55       75.10       74.64    
        74.18       73.72       73.27       72.81       72.35       71.88       71.42       70.95       70.48       70.00    
   9  -1000.0       93.90       93.78       93.60       93.35       93.04       92.65       92.20       91.68       91.09    
        90.43       89.70       88.94       88.15       87.39       86.67       86.05       85.48       84.94       84.42    
        83.90       83.38       82.86       82.34       81.82       81.30       80.79       80.29       79.79       79.29    
        78.80       78.32       77.84       77.37       76.90       76.44       75.98       75.52       75.06       74.61    
        74.16       73.71       73.25       72.80       72.34       71.88       71.41       70.95       70.47       70.00    
  10  -1000.0       93.93       93.83       93.65       93.40       93.08       92.68       92.21       91.66       91.02    
        90.31       89.51       88.66       87.77       86.95       86.27       85.72       85.23       84.75       84.26    
        83.77       83.26       82.76       82.24       81.73       81.22       80.71       80.21       79.71       79.22    
        78.73       78.25       77.78       77.31       76.85       76.39       75.93       75.48       75.03       74.58    
        74.13       73.68       73.24       72.78       72.33       71.87       71.41       70.94       70.47       70.00    
  11  -1000.0       93.98       93.89       93.72       93.47       93.14       92.72       92.23       91.65       90.97    
        90.20       89.31       88.32       87.26       86.28       85.73       85.34       84.96       84.55       84.11    
        83.64       83.15       82.66       82.15       81.64       81.13       80.62       80.12       79.62       79.14    
        78.65       78.18       77.71       77.24       76.79       76.33       75.88       75.43       74.99       74.55    
        74.11       73.66       73.22       72.77       72.32       71.87       71.41       70.94       70.47       70.00    
  12  -1000.0       94.05       93.97       93.80       93.54       93.20       92.78       92.27       91.66       90.95    
        90.12       89.14       87.97       86.58       85.11       85.01       84.93       84.71       84.38       83.98    
        83.53       83.05       82.56       82.05       81.54       81.03       80.52       80.02       79.53       79.04    
        78.57       78.09       77.63       77.17       76.72       76.27       75.82       75.38       74.95       74.51    
        74.08       73.64       73.20       72.76       72.32       71.86       71.41       70.94       70.47       70.00    
  13  -1000.0       94.15       94.07       93.89       93.63       93.29       92.86       92.34       91.71       90.98    
        90.12       89.08       87.76       85.89       82.42       84.28       84.67       84.58       84.29       83.90    
        83.45       82.97       82.47       81.96       81.44       80.93       80.42       79.92       79.43       78.94    
        78.47       78.00       77.54       77.09       76.64       76.20       75.76       75.33       74.90       74.47    
        74.04       73.62       73.19       72.75       72.31       71.86       71.41       70.94       70.47       70.00    
  14  -1000.0       94.27       94.19       94.01       93.75       93.40       92.96       92.43       91.80       91.07    
        90.21       89.21       88.02       86.60       85.10       84.98       84.88       84.64       84.29       83.87    
        83.40       82.90       82.39       81.87       81.34       80.82       80.30       79.80       79.31       78.83    
        78.36       77.90       77.44       77.00       76.56       76.12       75.69       75.26       74.84       74.43    
        74.01       73.59       73.17       72.75       72.31       71.87       71.41       70.95       70.48       70.00    
  15  -1000.0       94.42       94.33       94.15       93.89       93.53       93.09       92.55       91.93       91.21    
        90.38       89.45       88.40       87.29       86.27       85.67       85.23       84.81       84.36       83.88    
        83.37       82.85       82.31       81.77       81.24       80.70       80.18       79.68       79.19       78.71    
        78.24       77.79       77.34       76.90       76.46       76.03       75.61       75.19       74.78       74.38    
        73.98       73.57       73.16       72.75       72.32       71.88       71.43       70.96       70.48       70.00    
  16  -1000.0       94.59       94.50       94.32       94.04       93.68       93.24       92.70       92.08       91.37    
        90.58       89.71       88.78       87.82       86.92       86.17       85.56       85.01       84.46       83.92    
        83.36       82.80       82.24       81.68       81.12       80.58       80.05       79.54       79.05       78.58    
        78.12       77.67       77.23       76.79       76.36       75.94       75.52       75.11       74.71       74.32    
        73.94       73.55       73.16       72.76       72.34       71.90       71.45       70.98       70.49       70.00    
  17  -1000.0       94.79       94.70       94.51       94.23       93.86       93.40       92.87       92.25       91.55    
        90.79       89.96       89.09       88.20       87.34       86.54       85.83       85.18       84.57       83.96    
        83.35       82.75       82.16       81.57       81.00       80.44       79.91       79.40       78.91       78.44    
        77.99       77.54       77.11       76.68       76.26       75.84       75.43       75.02       74.64       74.26    
        73.90       73.54       73.17       72.78       72.37       71.94       71.48       71.00       70.51       70.00    
  18  -1000.0       95.02       94.92       94.72       94.43       94.05       93.59       93.04       92.42       91.73    
        90.98       90.18       89.34       88.49       87.63       86.80       86.04       85.33       84.65       83.99    
        83.34       82.69       82.06       81.45       80.86       80.28       79.75       79.24       78.75       78.29    
        77.85       77.42       76.99       76.57       76.15       75.74       75.32       74.92       74.54       74.19    
        73.86       73.53       73.19       72.82       72.43       72.00       71.54       71.05       70.53       70.00    
  19  -1000.0       95.29       95.18       94.97       94.66       94.27       93.78       93.22       92.59       91.90    
        91.15       90.36       89.53       88.69       87.83       86.97       86.18       85.44       84.72       84.02    
        83.30       82.61       81.94       81.30       80.69       80.11       79.57       79.06       78.59       78.14    
        77.71       77.29       76.88       76.47       76.05       75.63       75.21       74.80       74.42       74.11    
        73.83       73.54       73.24       72.89       72.51       72.09       71.62       71.11       70.57       70.00    
  20  -1000.0       95.60       95.48       95.25       94.92       94.50       93.99       93.41       92.76       92.05    
        91.30       90.50       89.67       88.82       87.96       87.08       86.26       85.50       84.79       84.04    
        83.25       82.50       81.78       81.12       80.49       79.91       79.37       78.87       78.41       77.98    
        77.56       77.16       76.77       76.37       75.97       75.54       75.10       74.65       74.24       74.00    
        73.80       73.58       73.32       73.01       72.64       72.22       71.74       71.20       70.62       70.00    
  21  -1000.0       95.96       95.82       95.57       95.20       94.74       94.20       93.59       92.91       92.19    
        91.41       90.60       89.76       88.90       88.01       87.12       86.28       85.52       84.87       84.09    
        83.16       82.33       81.58       80.89       80.25       79.67       79.14       78.66       78.22       77.81    
        77.42       77.05       76.68       76.30       75.91       75.48       75.00       74.46       73.89       73.86    
        73.81       73.67       73.46       73.18       72.83       72.41       71.92       71.35       70.70       70.00    
  22  -1000.0       96.39       96.23       95.93       95.52       95.01       94.42       93.76       93.05       92.29    
        91.49       90.66       89.80       88.91       88.01       87.08       86.22       85.42       84.74       83.91    
        82.95       82.09       81.30       80.59       79.96       79.39       78.88       78.43       78.02       77.64    
        77.28       76.94       76.60       76.26       75.89       75.48       74.99       74.29       73.05       73.75    
        73.91       73.85       73.68       73.42       73.10       72.69       72.19       71.57       70.83       70.00    
  23  -1000.0       96.92       96.72       96.37       95.89       95.31       94.66       93.95       93.19       92.40    
        91.56       90.70       89.81       88.90       87.97       87.02       86.11       85.25       84.42       83.56    
        82.66       81.80       81.00       80.27       79.63       79.09       78.61       78.19       77.82       77.48    
        77.17       76.87       76.57       76.27       75.95       75.60       75.20       74.73       74.23       74.25    
        74.25       74.17       74.00       73.77       73.47       73.08       72.58       71.93       71.07       70.00    
  24  -1000.0       97.61       97.34       96.88       96.31       95.65       94.93       94.15       93.34       92.50    
        91.63       90.73       89.82       88.88       87.93       86.94       86.00       85.08       84.18       83.27    
        82.37       81.49       80.66       79.90       79.25       78.78       78.33       77.95       77.63       77.35    
        77.09       76.84       76.59       76.35       76.09       75.82       75.52       75.21       74.94       74.81    
        74.72       74.60       74.43       74.22       73.96       73.62       73.16       72.51       71.51       70.00    
  25  -1000.0       98.53       98.10       97.49       96.78       96.02       95.21       94.36       93.49       92.60    
        91.68       90.75       89.81       88.85       87.87       86.87       85.89       84.93       83.97       83.03    
        82.08       81.16       80.26       79.43       78.73       78.49       78.00       77.70       77.45       77.24    
        77.04       76.85       76.66       76.48       76.29       76.10       75.91       75.72       75.54       75.39    
        75.26       75.12       74.97       74.79       74.57       74.32       73.98       73.48       72.53       70.00    
  26  -1000.0       97.83       97.56       97.12       96.55       95.90       95.19       94.43       93.63       92.79    
        91.93       91.04       90.13       89.19       88.23       87.23       86.26       85.31       84.37       83.45    
        82.55       81.68       80.84       80.08       79.43       78.95       78.49       78.10       77.77       77.48    
        77.22       76.97       76.73       76.50       76.27       76.05       75.82       75.60       75.39       75.19    
        74.99       74.79       74.56       74.31       74.01       73.65       73.18       72.51       71.51       70.00    
  27  -1000.0       97.38       97.19       96.84       96.37       95.81       95.18       94.50       93.76       92.99    
        92.17       91.33       90.45       89.53       88.59       87.60       86.64       85.70       84.79       83.89    
        83.02       82.18       81.39       80.65       80.00       79.44       78.94       78.49       78.10       77.75    
        77.43       77.13       76.85       76.57       76.31       76.04       75.79       75.53       75.28       75.04    
        74.79       74.53       74.26       73.94       73.58       73.16       72.63       71.95       71.07       70.00    
  28  -1000.0       97.09       96.94       96.66       96.26       95.77       95.21       94.59       93.91       93.18    
        92.41       91.61       90.76       89.87       88.95       87.98       87.03       86.11       85.22       84.34    
        83.49       82.68       81.90       81.18       80.51       79.91       79.37       78.88       78.44       78.04    
        77.67       77.33       77.00       76.69       76.39       76.09       75.80       75.51       75.23       74.95    
        74.66       74.35       74.03       73.67       73.27       72.80       72.26       71.61       70.85       70.00    
  29  -1000.0       96.91       96.79       96.55       96.21       95.78       95.27       94.70       94.07       93.39    
        92.66       91.89       91.07       90.21       89.31       88.36       87.44       86.53       85.65       84.80    
        83.97       83.17       82.41       81.68       81.00       80.37       79.79       79.27       78.79       78.35    
        77.94       77.56       77.19       76.85       76.51       76.18       75.86       75.54       75.22       74.90    
        74.57       74.23       73.87       73.48       73.05       72.57       72.02       71.41       70.73       70.00    
  30  -1000.0       96.80       96.69       96.48       96.18       95.80       95.34       94.81       94.22       93.58    
        92.88       92.14       91.35       90.52       89.64       88.71       87.80       86.91       86.05       85.21    
        84.39       83.61       82.85       82.13       81.44       80.78       80.18       79.63       79.12       78.65    
        78.20       77.79       77.39       77.01       76.64       76.28       75.93       75.58       75.23       74.88    
        74.52       74.15       73.76       73.34       72.89       72.40       71.87       71.28       70.65       70.00    
  31  -1000.0       96.73       96.63       96.45       96.18       95.82       95.40       94.91       94.36       93.75    
        93.08       92.37       91.61       90.79       89.93       89.02       88.13       87.26       86.41       85.58    
        84.78       84.00       83.25       82.53       81.83       81.16       80.54       79.96       79.43       78.93    
        78.46       78.01       77.59       77.18       76.78       76.40       76.02       75.64       75.27       74.89    
        74.50       74.10       73.69       73.25       72.79       72.29       71.76       71.20       70.61       70.00    
  32  -1000.0       96.69       96.60       96.43       96.18       95.86       95.46       95.00       94.48       93.90    
        93.26       92.57       91.83       91.04       90.20       89.31       88.44       87.58       86.74       85.92    
        85.13       84.36       83.61       82.88       82.18       81.50       80.87       80.28       79.72       79.20    
        78.71       78.24       77.79       77.35       76.93       76.52       76.12       75.72       75.31       74.91    
        74.50       74.08       73.65       73.20       72.72       72.22       71.70       71.15       70.58       70.00    
  33  -1000.0       96.67       96.60       96.44       96.21       95.90       95.53       95.09       94.60       94.04    
        93.43       92.76       92.04       91.27       90.45       89.57       88.71       87.87       87.04       86.23    
        85.45       84.68       83.93       83.21       82.51       81.82       81.18       80.57       80.00       79.46    
        78.95       78.46       77.98       77.53       77.08       76.65       76.22       75.80       75.38       74.95    
        74.52       74.08       73.63       73.17       72.69       72.18       71.66       71.12       70.57       70.00    
  34  -1000.0       96.68       96.60       96.46       96.24       95.95       95.60       95.18       94.70       94.17    
        93.58       92.93       92.23       91.47       90.67       89.81       88.96       88.13       87.31       86.52    
        85.74       84.97       84.23       83.51       82.80       82.12       81.47       80.85       80.27       79.71    
        79.18       78.67       78.18       77.70       77.24       76.78       76.33       75.89       75.45       75.00    
        74.56       74.10       73.64       73.16       72.67       72.16       71.64       71.11       70.56       70.00    
  35  -1000.0       96.69       96.62       96.48       96.27       96.00       95.66       95.26       94.80       94.29    
        93.71       93.08       92.40       91.66       90.87       90.02       89.19       88.37       87.56       86.77    
        86.00       85.24       84.50       83.78       83.07       82.39       81.73       81.11       80.51       79.94    
        79.40       78.87       78.36       77.87       77.39       76.91       76.45       75.98       75.52       75.06    
        74.60       74.13       73.65       73.16       72.67       72.15       71.63       71.10       70.55       70.00    
  36  -1000.0       96.71       96.65       96.51       96.31       96.05       95.73       95.34       94.90       94.39    
        93.83       93.22       92.55       91.83       91.05       90.21       89.39       88.58       87.78       87.00    
        86.24       85.48       84.75       84.03       83.32       82.63       81.97       81.34       80.74       80.16    
        79.60       79.06       78.54       78.03       77.53       77.04       76.56       76.08       75.61       75.13    
        74.65       74.17       73.68       73.18       72.67       72.15       71.63       71.09       70.55       70.00    
  37  -1000.0       96.74       96.67       96.55       96.35       96.10       95.78       95.41       94.98       94.49    
        93.94       93.34       92.69       91.98       91.21       90.39       89.57       88.77       87.99       87.21    
        86.45       85.70       84.97       84.25       83.55       82.86       82.20       81.56       80.95       80.36    
        79.80       79.24       78.71       78.18       77.67       77.17       76.67       76.18       75.69       75.19    
        74.70       74.21       73.70       73.20       72.68       72.16       71.63       71.09       70.55       70.00    
  38  -1000.0       96.77       96.71       96.58       96.39       96.15       95.84       95.48       95.05       94.58    
        94.04       93.45       92.81       92.11       91.35       90.54       89.74       88.95       88.17       87.40    
        86.64       85.90       85.17       84.46       83.76       83.07       82.41       81.77       81.15       80.55    
        79.98       79.41       78.87       78.33       77.80       77.29       76.78       76.27       75.76       75.26    
        74.75       74.25       73.74       73.22       72.70       72.17       71.64       71.10       70.55       70.00    
  39  -1000.0       96.80       96.74       96.61       96.43       96.19       95.89       95.53       95.12       94.65    
        94.13       93.55       92.92       92.23       91.48       90.68       89.89       89.10       88.33       87.57    
        86.82       86.08       85.36       84.64       83.94       83.26       82.59       81.95       81.33       80.73    
        80.14       79.57       79.01       78.47       77.93       77.40       76.87       76.35       75.84       75.32    
        74.80       74.29       73.77       73.24       72.72       72.18       71.65       71.10       70.55       70.00    
  40  -1000.0       96.83       96.77       96.64       96.46       96.23       95.93       95.58       95.18       94.72    
        94.21       93.64       93.01       92.33       91.60       90.80       90.02       89.24       88.47       87.72    
        86.97       86.24       85.52       84.81       84.11       83.43       82.76       82.12       81.50       80.89    
        80.29       79.71       79.15       78.59       78.04       77.50       76.96       76.43       75.90       75.38    
        74.85       74.33       73.80       73.27       72.74       72.20       71.66       71.11       70.56       70.00    
  41  -1000.0       96.86       96.80       96.67       96.49       96.26       95.97       95.62       95.22       94.77    
        94.27       93.71       93.09       92.42       91.69       90.91       90.13       89.36       88.60       87.85    
        87.11       86.38       85.66       84.96       84.26       83.58       82.92       82.27       81.64       81.03    
        80.43       79.84       79.26       78.70       78.14       77.59       77.04       76.50       75.97       75.43    
        74.90       74.37       73.83       73.29       72.76       72.21       71.67       71.11       70.56       70.00    
  42  -1000.0       96.92       96.82       96.69       96.51       96.28       95.99       95.65       95.26       94.82    
        94.32       93.77       93.16       92.50       91.78       91.00       90.23       89.46       88.71       87.96    
        87.23       86.50       85.79       85.09       84.39       83.71       83.05       82.40       81.77       81.15    
        80.55       79.95       79.37       78.79       78.23       77.67       77.12       76.57       76.02       75.48    
        74.94       74.40       73.86       73.32       72.77       72.23       71.68       71.12       70.56       70.00    
  43  -1000.0       96.97       96.88       96.70       96.52       96.28       96.00       95.67       95.28       94.85    
        94.36       93.82       93.22       92.56       91.85       91.08       90.31       89.55       88.80       88.06    
        87.33       86.61       85.90       85.20       84.51       83.83       83.17       82.52       81.88       81.26    
        80.65       80.05       79.46       78.88       78.31       77.74       77.18       76.63       76.07       75.53    
        74.98       74.43       73.89       73.34       72.79       72.24       71.69       71.13       70.57       70.00    
  44  -1000.0       97.02       96.92       96.76       96.51       96.28       96.00       95.67       95.30       94.87    
        94.39       93.85       93.26       92.61       91.91       91.14       90.38       89.63       88.88       88.15    
        87.42       86.70       85.99       85.29       84.60       83.93       83.27       82.61       81.98       81.35    
        80.74       80.13       79.54       78.95       78.37       77.80       77.23       76.67       76.12       75.56    
        75.01       74.46       73.91       73.36       72.81       72.25       71.69       71.13       70.57       70.00    
  45  -1000.0       97.04       96.94       96.78       96.55       96.26       95.98       95.66       95.29       94.87    
        94.40       93.88       93.29       92.65       91.95       91.19       90.44       89.69       88.95       88.21    
        87.49       86.77       86.07       85.37       84.68       84.01       83.35       82.69       82.05       81.42    
        80.81       80.20       79.60       79.01       78.43       77.85       77.28       76.72       76.15       75.60    
        75.04       74.49       73.93       73.38       72.82       72.26       71.70       71.14       70.57       70.00    
  46  -1000.0     -1000.0       96.91       96.77       96.56       96.29       95.95       95.64       95.28       94.87    
        94.41       93.89       93.31       92.68       91.99       91.23       90.48       89.74       89.00       88.27    
        87.55       86.83       86.13       85.43       84.75       84.07       83.41       82.76       82.11       81.48    
        80.86       80.25       79.65       79.06       78.47       77.89       77.32       76.75       76.18       75.62    
        75.06       74.51       73.95       73.39       72.83       72.27       71.71       71.14       70.57       70.00    
  47  -1000.0     -1000.0     -1000.0       96.71       96.53       96.28       95.98       95.59       95.24       94.85    
        94.40       93.89       93.33       92.70       92.01       91.26       90.51       89.77       89.04       88.31    
        87.59       86.87       86.17       85.48       84.79       84.12       83.45       82.80       82.16       81.53    
        80.90       80.29       79.69       79.09       78.50       77.92       77.34       76.77       76.21       75.64    
        75.08       74.52       73.96       73.40       72.84       72.28       71.71       71.15       70.58       70.00    
  48  -1000.0     -1000.0     -1000.0     -1000.0       96.45       96.25       95.98       95.63       95.20       94.81    
        94.38       93.89       93.33       92.71       92.03       91.28       90.53       89.80       89.06       88.33    
        87.62       86.90       86.20       85.51       84.82       84.15       83.49       82.83       82.19       81.56    
        80.93       80.32       79.71       79.12       78.52       77.94       77.36       76.79       76.22       75.66    
        75.09       74.53       73.97       73.41       72.85       72.28       71.72       71.15       70.58       70.00    
  49  -1000.0     -1000.0     -1000.0     -1000.0     -1000.0       96.17       95.97       95.64       95.23       94.76    
        94.36       93.88       93.33       92.72       92.03       91.29       90.55       89.81       89.07       88.35    
        87.63       86.92       86.22       85.52       84.84       84.16       83.50       82.85       82.20       81.57    
        80.95       80.33       79.73       79.13       78.54       77.95       77.37       76.80       76.23       75.66    
        75.10       74.54       73.97       73.41       72.85       72.28       71.72       71.15       70.58       70.00    
  50  -1000.0     -1000.0     -1000.0     -1000.0     -1000.0     -1000.0     -1000.0     -1000.0     -1000.0     -1000.0    
      -1000.0     -1000.0     -1000.0     -1000.0     -1000.0     -1000.0     -1000.0     -1000.0     -1000.0     -1000.0    
      -1000.0     -1000.0     -1000.0     -1000.0     -1000.0     -1000.0     -1000.0     -1000.0     -1000.0     -1000.0    
      -1000.0     -1000.0     -1000.0     -1000.0     -1000.0     -1000.0     -1000.0     -1000.0     -1000.0     -1000.0    
      -1000.0     -1000.0     -1000.0     -1000.0     -1000.0     -1000.0     -1000.0     -1000.0     -1000.0       70.00    
1
              HEAD IN LAYER   2 AT END OF TIME STEP   1 IN STRESS PERIOD    1
  ---------------------------------------------------------------------------

            1           2           3           4           5           6           7           8           9          10
           11          12          13          14          15          16          17          18          19          20
           21          22          23          24          25          26          27          28          29          30
           31          32          33          34          35          36          37          38          39          40
           41          42          43          44          45          46          47          48          49          50
 ........................................................................................................................
   1  -1000.0     -1000.0     -1000.0     -1000.0     -1000.0     -1000.0     -1000.0     -1000.0     -1000.0     -1000.0    
      -1000.0     -1000.0     -1000.0     -1000.0     -1000.0     -1000.0     -1000.0     -1000.0     -1000.0     -1000.0    
      -1000.0     -1000.0     -1000.0     -1000.0     -1000.0     -1000.0     -1000.0     -1000.0     -1000.0     -1000.0    
      -1000.0     -1000.0     -1000.0     -1000.0     -1000.0     -1000.0     -1000.0     -1000.0     -1000.0     -1000.0    
      -1000.0     -1000.0     -1000.0     -1000.0     -1000.0     -1000.0     -1000.0     -1000.0     -1000.0       70.00    
   2  -1000.0     -1000.0     -1000.0     -1000.0     -1000.0     -1000.0     -1000.0       92.12       91.67       91.15    
        90.73       90.23       89.67       89.05       88.39       87.68       86.99       86.32       85.68       85.05    
        84.44       83.86       83.28       82.72       82.17       81.63       81.10       80.57       80.06       79.55    
        79.05       78.55       78.06       77.57       77.09       76.61       76.13       75.66       75.19       74.72    
        74.25       73.78       73.32       72.85       72.38       71.91       71.43       70.96       70.48       70.00    
   3  -1000.0     -1000.0     -1000.0     -1000.0     -1000.0     -1000.0       92.50       92.11       91.62       91.20    
        90.74       90.23       89.65       89.03       88.36       87.65       86.96       86.29       85.65       85.03    
        84.42       83.84       83.26       82.70       82.16       81.62       81.09       80.56       80.05       79.54    
        79.04       78.54       78.05       77.56       77.08       76.60       76.13       75.66       75.18       74.72    
        74.25       73.78       73.31       72.84       72.38       71.91       71.43       70.96       70.48       70.00    
   4  -1000.0     -1000.0     -1000.0     -1000.0     -1000.0       92.87       92.51       92.07       91.67       91.23    
        90.74       90.20       89.62       88.98       88.31       87.59       86.90       86.24       85.60       84.98    
        84.38       83.80       83.23       82.67       82.13       81.59       81.06       80.54       80.03       79.52    
        79.02       78.53       78.04       77.55       77.07       76.59       76.12       75.65       75.18       74.71    
        74.24       73.77       73.31       72.84       72.37       71.90       71.43       70.96       70.48       70.00    
   5  -1000.0     -1000.0     -1000.0     -1000.0       93.22       92.90       92.49       92.12       91.71       91.24    
        90.72       90.16       89.56       88.91       88.22       87.50       86.81       86.15       85.52       84.91    
        84.32       83.74       83.18       82.63       82.09       81.55       81.03       80.51       80.00       79.49    
        78.99       78.50       78.01       77.53       77.05       76.57       76.10       75.63       75.16       74.70    
        74.23       73.77       73.30       72.83       72.37       71.90       71.43       70.95       70.48       70.00    
   6  -1000.0     -1000.0     -1000.0       93.53       93.25       92.89       92.55       92.16       91.72       91.23    
        90.68       90.09       89.46       88.80       88.10       87.37       86.69       86.04       85.42       84.82    
        84.24       83.67       83.12       82.57       82.04       81.51       80.98       80.47       79.96       79.46    
        78.96       78.47       77.98       77.50       77.02       76.55       76.08       75.61       75.14       74.68    
        74.22       73.75       73.29       72.83       72.36       71.89       71.42       70.95       70.48       70.00    
   7  -1000.0     -1000.0       93.76       93.55       93.24       92.95       92.59       92.18       91.72       91.19    
        90.62       90.00       89.33       88.64       87.93       87.20       86.53       85.89       85.29       84.70    
        84.14       83.59       83.04       82.50       81.97       81.45       80.93       80.42       79.91       79.41    
        78.92       78.43       77.94       77.46       76.99       76.52       76.05       75.58       75.12       74.66    
        74.20       73.74       73.28       72.82       72.35       71.89       71.42       70.95       70.48       70.00    
   8  -1000.0       93.89       93.77       93.55       93.30       92.99       92.62       92.19       91.70       91.15    
        90.53       89.87       89.16       88.43       87.70       86.97       86.31       85.70       85.13       84.57    
        84.02       83.49       82.95       82.42       81.90       81.38       80.86       80.36       79.85       79.36    
        78.86       78.38       77.90       77.42       76.95       76.48       76.02       75.55       75.10       74.64    
        74.18       73.72       73.27       72.81       72.35       71.88       71.42       70.95       70.48       70.00    
   9  -1000.0       93.90       93.78       93.60       93.35       93.04       92.65       92.20       91.68       91.09    
        90.43       89.70       88.94       88.15       87.39       86.67       86.05       85.48       84.94       84.42    
        83.90       83.38       82.86       82.34       81.82       81.30       80.79       80.29       79.79       79.29    
        78.80       78.32       77.84       77.37       76.90       76.44       75.98       75.52       75.06       74.61    
        74.16       73.71       73.25       72.80       72.34       71.88       71.41       70.95       70.47       70.00    
  10  -1000.0       93.93       93.83       93.65       93.40       93.08       92.68       92.21       91.66       91.02    
        90.31       89.51       88.66       87.77       86.95       86.27       85.72       85.23       84.75       84.26    
        83.77       83.26       82.76       82.24       81.73       81.22       80.71       80.21       79.71       79.22    
        78.73       78.25       77.78       77.31       76.85       76.39       75.93       75.48       75.03       74.58    
        74.13       73.68       73.24       72.78       72.33       71.87       71.41       70.94       70.47       70.00    
  11  -1000.0       93.98       93.89       93.72       93.47       93.14       92.72       92.23       91.65       90.97    
        90.20       89.31       88.32       87.26       86.28       85.73       85.34       84.96       84.55       84.11    
        83.64       83.15       82.66       82.15       81.64       81.13       80.62       80.12       79.62       79.14    
        78.65       78.18       77.71       77.24       76.79       76.33       75.88       75.43       74.99       74.55    
        74.11       73.66       73.22       72.77       72.32       71.87       71.41       70.94       70.47       70.00    
  12  -1000.0       94.05       93.97       93.80       93.54       93.20       92.78       92.27       91.66       90.95    
        90.12       89.14       87.97       86.58       85.11       85.01       84.93       84.71       84.38       83.98    
        83.53       83.05       82.56       82.05       81.54       81.03       80.52       80.02       79.53       79.04    
        78.57       78.09       77.63       77.17       76.72       76.27       75.82       75.38       74.95       74.51    
        74.08       73.64       73.20       72.76       72.31       71.86       71.41       70.94       70.47       70.00    
  13  -1000.0       94.15       94.07       93.89       93.63       93.29       92.86       92.34       91.71       90.98    
        90.12       89.08       87.76       85.89       82.43       84.28       84.67       84.58       84.29       83.90    
        83.45       82.97       82.47       81.96       81.44       80.93       80.42       79.92       79.43       78.94    
        78.47       78.00       77.54       77.09       76.64       76.20       75.76       75.33       74.90       74.47    
        74.04       73.62       73.19       72.75       72.31       71.86       71.41       70.94       70.47       70.00    
  14  -1000.0       94.27       94.19       94.01       93.75       93.40       92.96       92.43       91.80       91.07    
        90.21       89.21       88.02       86.60       85.10       84.98       84.88       84.64       84.29       83.87    
        83.40       82.90       82.39       81.87       81.34       80.82       80.30       79.80       79.31       78.83    
        78.36       77.90       77.44       77.00       76.56       76.12       75.69       75.26       74.84       74.43    
        74.01       73.59       73.17       72.75       72.31       71.87       71.41       70.95       70.48       70.00    
  15  -1000.0       94.42       94.33       94.15       93.89       93.53       93.09       92.55       91.93       91.21    
        90.38       89.45       88.40       87.29       86.27       85.67       85.23       84.81       84.36       83.88    
        83.37       82.85       82.31       81.77       81.24       80.70       80.18       79.68       79.19       78.71    
        78.24       77.79       77.34       76.90       76.46       76.03       75.61       75.19       74.78       74.38    
        73.98       73.57       73.16       72.75       72.32       71.88       71.43       70.96       70.48       70.00    
  16  -1000.0       94.59       94.50       94.32       94.04       93.68       93.24       92.70       92.08       91.37    
        90.58       89.71       88.78       87.82       86.92       86.17       85.56       85.01       84.46       83.92    
        83.36       82.80       82.24       81.68       81.12       80.58       80.05       79.54       79.05       78.58    
        78.12       77.67       77.23       76.79       76.36       75.94       75.52       75.11       74.71       74.32    
        73.94       73.55       73.16       72.76       72.34       71.90       71.45       70.98       70.49       70.00    
  17  -1000.0       94.79       94.70       94.51       94.23       93.86       93.40       92.87       92.25       91.55    
        90.79       89.96       89.09       88.20       87.34       86.54       85.83       85.18       84.57       83.96    
        83.35       82.75       82.16       81.57       81.00       80.44       79.91       79.40       78.91       78.44    
        77.99       77.54       77.11       76.68       76.26       75.84       75.43       75.02       74.64       74.26    
        73.90       73.54       73.17       72.78       72.37       71.94       71.48       71.00       70.51       70.00    
  18  -1000.0       95.02       94.92       94.72       94.43       94.05       93.59       93.04       92.42       91.73    
        90.98       90.18       89.34       88.49       87.63       86.80       86.04       85.33       84.65       83.99    
        83.34       82.69       82.06       81.45       80.86       80.28       79.75       79.24       78.75       78.29    
        77.85       77.42       76.99       76.57       76.15       75.74       75.32       74.92       74.54       74.19    
        73.86       73.53       73.19       72.82       72.43       72.00       71.54       71.05       70.53       70.00    
  19  -1000.0       95.29       95.18       94.97       94.66       94.27       93.78       93.22       92.59       91.90    
        91.15       90.36       89.53       88.69       87.83       86.97       86.18       85.44       84.72       84.02    
        83.30       82.61       81.94       81.30       80.69       80.11       79.57       79.06       78.59       78.14    
        77.71       77.29       76.88       76.47       76.05       75.63       75.21       74.80       74.42       74.11    
        73.83       73.54       73.24       72.89       72.51       72.09       71.62       71.11       70.57       70.00    
  20  -1000.0       95.60       95.48       95.25       94.92       94.50       93.99       93.41       92.76       92.05    
        91.30       90.50       89.67       88.82       87.96       87.08       86.26       85.50       84.79       84.04    
        83.25       82.50       81.78       81.12       80.49       79.91       79.37       78.87       78.41       77.98    
        77.56       77.16       76.77       76.37       75.97       75.54       75.10       74.65       74.24       74.00    
        73.80       73.58       73.32       73.01       72.64       72.22       71.74       71.20       70.62       70.00    
  21  -1000.0       95.96       95.82       95.57       95.20       94.74       94.20       93.59       92.91       92.19    
        91.41       90.60       89.76       88.90       88.01       87.12       86.28       85.52       84.87       84.09    
        83.16       82.33       81.58       80.89       80.25       79.67       79.14       78.66       78.22       77.81    
        77.42       77.05       76.68       76.30       75.91       75.48       75.00       74.46       73.89       73.86    
        73.81       73.67       73.46       73.18       72.83       72.41       71.92       71.35       70.70       70.00    
  22  -1000.0       96.39       96.23       95.93       95.52       95.01       94.42       93.76       93.05       92.29    
        91.49       90.66       89.80       88.91       88.01       87.08       86.22       85.42       84.74       83.91    
        82.95       82.09       81.31       80.60       79.96       79.39       78.88       78.43       78.02       77.64    
        77.28       76.94       76.60       76.26       75.89       75.48       74.99       74.29       73.02       73.75    
        73.91       73.85       73.68       73.42       73.10       72.69       72.19       71.57       70.83       70.00    
  23  -1000.0       96.92       96.72       96.37       95.89       95.31       94.66       93.95       93.19       92.40    
        91.56       90.70       89.81       88.90       87.97       87.02       86.11       85.25       84.42       83.56    
        82.66       81.80       81.00       80.27       79.63       79.09       78.61       78.19       77.82       77.48    
        77.17       76.87       76.57       76.27       75.96       75.61       75.20       74.73       74.23       74.25    
        74.25       74.17       74.00       73.77       73.47       73.08       72.58       71.93       71.07       70.00    
  24  -1000.0       97.61       97.34       96.88       96.31       95.65       94.93       94.15       93.34       92.50    
        91.63       90.73       89.82       88.88       87.93       86.94       86.00       85.08       84.18       83.28    
        82.37       81.49       80.66       79.90       79.25       78.78       78.33       77.95       77.63       77.35    
        77.09       76.84       76.59       76.35       76.09       75.82       75.52       75.21       74.94       74.81    
        74.72       74.60       74.44       74.22       73.96       73.62       73.16       72.51       71.51       70.00    
  25  -1000.0       98.52       98.09       97.49       96.78       96.02       95.21       94.36       93.49       92.60    
        91.69       90.76       89.81       88.85       87.87       86.87       85.89       84.93       83.97       83.03    
        82.09       81.17       80.28       79.44       78.75       78.50       78.01       77.71       77.46       77.24    
        77.04       76.85       76.66       76.48       76.29       76.10       75.90       75.71       75.53       75.38    
        75.25       75.11       74.95       74.77       74.56       74.30       73.96       73.45       72.49       70.00    
  26  -1000.0       97.83       97.56       97.12       96.55       95.90       95.19       94.43       93.63       92.79    
        91.93       91.04       90.13       89.19       88.23       87.23       86.26       85.31       84.37       83.45    
        82.55       81.68       80.85       80.08       79.43       78.95       78.49       78.10       77.78       77.48    
        77.22       76.97       76.73       76.50       76.27       76.05       75.82       75.60       75.39       75.19    
        74.99       74.79       74.56       74.31       74.01       73.65       73.18       72.51       71.51       70.00    
  27  -1000.0       97.38       97.19       96.84       96.37       95.81       95.18       94.50       93.76       92.99    
        92.17       91.33       90.45       89.53       88.59       87.60       86.64       85.70       84.79       83.89    
        83.02       82.18       81.39       80.65       80.00       79.44       78.94       78.49       78.11       77.75    
        77.43       77.13       76.85       76.57       76.31       76.05       75.79       75.53       75.29       75.04    
        74.79       74.54       74.26       73.94       73.58       73.16       72.63       71.95       71.07       70.00    
  28  -1000.0       97.09       96.94       96.66       96.26       95.77       95.21       94.59       93.91       93.18    
        92.41       91.61       90.76       89.87       88.95       87.98       87.04       86.11       85.22       84.34    
        83.49       82.68       81.90       81.18       80.51       79.91       79.37       78.88       78.44       78.04    
        77.67       77.33       77.00       76.69       76.39       76.09       75.80       75.52       75.23       74.95    
        74.66       74.35       74.03       73.67       73.27       72.80       72.26       71.61       70.85       70.00    
  29  -1000.0       96.91       96.79       96.55       96.21       95.78       95.27       94.70       94.07       93.39    
        92.66       91.89       91.07       90.21       89.31       88.36       87.44       86.53       85.65       84.80    
        83.97       83.17       82.41       81.68       81.00       80.37       79.79       79.27       78.79       78.35    
        77.94       77.56       77.19       76.85       76.51       76.18       75.86       75.54       75.22       74.90    
        74.57       74.23       73.87       73.48       73.05       72.57       72.02       71.41       70.73       70.00    
  30  -1000.0       96.80       96.69       96.48       96.18       95.80       95.34       94.81       94.22       93.58    
        92.88       92.14       91.35       90.52       89.64       88.71       87.80       86.91       86.05       85.21    
        84.39       83.61       82.85       82.13       81.44       80.78       80.18       79.63       79.12       78.65    
        78.20       77.79       77.39       77.01       76.64       76.28       75.93       75.58       75.24       74.88    
        74.52       74.15       73.76       73.34       72.89       72.40       71.87       71.28       70.65       70.00    
  31  -1000.0       96.73       96.63       96.45       96.18       95.82       95.40       94.91       94.36       93.75    
        93.08       92.37       91.61       90.79       89.93       89.02       88.13       87.26       86.41       85.58    
        84.78       84.00       83.25       82.53       81.83       81.16       80.54       79.96       79.43       78.93    
        78.46       78.01       77.59       77.18       76.78       76.40       76.02       75.64       75.27       74.89    
        74.50       74.10       73.69       73.25       72.79       72.29       71.76       71.20       70.61       70.00    
  32  -1000.0       96.69       96.60       96.43       96.18       95.86       95.46       95.00       94.48       93.90    
        93.26       92.57       91.83       91.04       90.20       89.31       88.44       87.58       86.74       85.92    
        85.13       84.36       83.61       82.88       82.18       81.50       80.87       80.28       79.73       79.20    
        78.71       78.24       77.79       77.35       76.93       76.52       76.12       75.72       75.32       74.91    
        74.50       74.08       73.65       73.20       72.72       72.22       71.70       71.15       70.58       70.00    
  33  -1000.0       96.67       96.60       96.44       96.21       95.90       95.53       95.09       94.60       94.04    
        93.43       92.76       92.04       91.27       90.45       89.57       88.71       87.87       87.04       86.23    
        85.45       84.68       83.93       83.21       82.51       81.82       81.18       80.57       80.00       79.46    
        78.95       78.46       77.98       77.53       77.08       76.65       76.22       75.80       75.38       74.95    
        74.52       74.08       73.63       73.17       72.69       72.18       71.66       71.12       70.57       70.00    
  34  -1000.0       96.68       96.60       96.46       96.24       95.95       95.60       95.18       94.70       94.17    
        93.58       92.93       92.23       91.47       90.67       89.81       88.96       88.13       87.31       86.52    
        85.74       84.97       84.23       83.51       82.80       82.12       81.47       80.85       80.27       79.71    
        79.18       78.67       78.18       77.70       77.24       76.78       76.33       75.89       75.45       75.00    
        74.56       74.10       73.64       73.16       72.67       72.16       71.64       71.11       70.56       70.00    
  35  -1000.0       96.69       96.62       96.48       96.27       96.00       95.66       95.26       94.80       94.29    
        93.71       93.08       92.40       91.66       90.87       90.02       89.19       88.37       87.56       86.77    
        86.00       85.24       84.50       83.78       83.07       82.39       81.73       81.11       80.51       79.94    
        79.40       78.87       78.36       77.87       77.39       76.91       76.45       75.99       75.52       75.06    
        74.60       74.13       73.65       73.16       72.67       72.15       71.63       71.10       70.55       70.00    
  36  -1000.0       96.71       96.65       96.51       96.31       96.05       95.73       95.34       94.89       94.39    
        93.83       93.22       92.55       91.83       91.05       90.21       89.39       88.58       87.78       87.00    
        86.24       85.48       84.75       84.03       83.32       82.63       81.97       81.34       80.74       80.16    
        79.60       79.06       78.54       78.03       77.53       77.04       76.56       76.08       75.61       75.13    
        74.65       74.17       73.68       73.18       72.67       72.15       71.63       71.09       70.55       70.00    
  37  -1000.0       96.74       96.67       96.55       96.35       96.10       95.78       95.41       94.98       94.49    
        93.94       93.34       92.69       91.98       91.21       90.39       89.57       88.77       87.99       87.21    
        86.45       85.70       84.97       84.25       83.55       82.86       82.20       81.56       80.95       80.36    
        79.80       79.24       78.71       78.18       77.67       77.17       76.67       76.18       75.69       75.19    
        74.70       74.21       73.70       73.20       72.68       72.16       71.63       71.09       70.55       70.00    
  38  -1000.0       96.77       96.71       96.58       96.39       96.15       95.84       95.48       95.05       94.58    
        94.04       93.45       92.81       92.11       91.35       90.54       89.74       88.95       88.17       87.40    
        86.64       85.90       85.17       84.46       83.76       83.07       82.41       81.77       81.15       80.55    
        79.98       79.41       78.87       78.33       77.80       77.29       76.78       76.27       75.76       75.26    
        74.75       74.25       73.74       73.22       72.70       72.17       71.64       71.10       70.55       70.00    
  39  -1000.0       96.80       96.74       96.61       96.43       96.19       95.89       95.53       95.12       94.65    
        94.13       93.55       92.92       92.23       91.48       90.68       89.89       89.10       88.33       87.57    
        86.82       86.08       85.36       84.64       83.94       83.26       82.59       81.95       81.33       80.73    
        80.14       79.57       79.01       78.47       77.93       77.40       76.87       76.35       75.84       75.32    
        74.80       74.29       73.77       73.24       72.72       72.18       71.65       71.10       70.55       70.00    
  40  -1000.0       96.83       96.77       96.64       96.46       96.23       95.93       95.58       95.18       94.72    
        94.21       93.64       93.01       92.33       91.59       90.80       90.02       89.24       88.47       87.72    
        86.97       86.24       85.52       84.81       84.11       83.43       82.76       82.12       81.50       80.89    
        80.29       79.71       79.15       78.59       78.04       77.50       76.96       76.43       75.90       75.38    
        74.85       74.33       73.80       73.27       72.74       72.20       71.66       71.11       70.56       70.00    
  41  -1000.0       96.86       96.80       96.67       96.49       96.25       95.97       95.62       95.22       94.77    
        94.27       93.71       93.09       92.42       91.69       90.91       90.13       89.36       88.60       87.85    
        87.11       86.38       85.66       84.96       84.26       83.58       82.92       82.27       81.64       81.03    
        80.43       79.84       79.26       78.70       78.14       77.59       77.04       76.50       75.97       75.43    
        74.90       74.37       73.83       73.29       72.76       72.21       71.67       71.11       70.56       70.00    
  42  -1000.0       96.92       96.82       96.69       96.51       96.28       95.99       95.65       95.26       94.82    
        94.32       93.77       93.16       92.50       91.78       91.00       90.23       89.46       88.71       87.96    
        87.23       86.50       85.79       85.09       84.39       83.71       83.05       82.40       81.77       81.15    
        80.55       79.95       79.37       78.79       78.23       77.67       77.12       76.57       76.02       75.48    
        74.94       74.40       73.86       73.32       72.77       72.23       71.68       71.12       70.56       70.00    
  43  -1000.0       96.97       96.88       96.70       96.52       96.28       96.00       95.67       95.28       94.85    
        94.36       93.82       93.22       92.56       91.85       91.08       90.31       89.55       88.80       88.06    
        87.33       86.61       85.90       85.20       84.51       83.83       83.17       82.52       81.88       81.26    
        80.65       80.05       79.46       78.88       78.31       77.74       77.18       76.63       76.07       75.53    
        74.98       74.43       73.89       73.34       72.79       72.24       71.69       71.13       70.57       70.00    
  44  -1000.0     -1000.0       96.92       96.76       96.51       96.28       96.00       95.67       95.30       94.87    
        94.39       93.85       93.26       92.61       91.91       91.14       90.38       89.63       88.88       88.15    
        87.42       86.70       85.99       85.29       84.60       83.93       83.27       82.61       81.98       81.35    
        80.74       80.13       79.54       78.95       78.37       77.80       77.23       76.67       76.12       75.56    
        75.01       74.46       73.91       73.36       72.81       72.25       71.69       71.13       70.57       70.00    
  45  -1000.0     -1000.0     -1000.0       96.78       96.55       96.26       95.98       95.66       95.29       94.87    
        94.40       93.88       93.29       92.65       91.95       91.19       90.44       89.69       88.95       88.21    
        87.49       86.77       86.07       85.37       84.68       84.01       83.35       82.69       82.05       81.42    
        80.81       80.20       79.60       79.01       78.43       77.85       77.28       76.72       76.15       75.60    
        75.04       74.49       73.93       73.38       72.82       72.26       71.70       71.14       70.57       70.00    
  46  -1000.0     -1000.0     -1000.0     -1000.0       96.56       96.29       95.95       95.64       95.28       94.87    
        94.41       93.89       93.31       92.68       91.99       91.23       90.48       89.74       89.00       88.27    
        87.55       86.83       86.13       85.43       84.75       84.07       83.41       82.76       82.11       81.48    
        80.86       80.25       79.65       79.06       78.47       77.89       77.32       76.75       76.18       75.62    
        75.06       74.51       73.95       73.39       72.83       72.27       71.71       71.14       70.57       70.00    
  47  -1000.0     -1000.0     -1000.0     -1000.0     -1000.0       96.28       95.98       95.59       95.24       94.85    
        94.40       93.89       93.33       92.70       92.01       91.26       90.51       89.77       89.04       88.31    
        87.59       86.87       86.17       85.48       84.79       84.12       83.45       82.80       82.16       81.53    
        80.90       80.29       79.69       79.09       78.50       77.92       77.34       76.77       76.21       75.64    
        75.08       74.52       73.96       73.40       72.84       72.28       71.71       71.15       70.58       70.00    
  48  -1000.0     -1000.0     -1000.0     -1000.0     -1000.0     -1000.0       95.98       95.63       95.20       94.81    
        94.38       93.89       93.33       92.71       92.03       91.28       90.53       89.80       89.06       88.33    
        87.62       86.90       86.20       85.51       84.82       84.15       83.49       82.83       82.19       81.56    
        80.93       80.32       79.71       79.12       78.52       77.94       77.36       76.79       76.22       75.66    
        75.09       74.53       73.97       73.41       72.85       72.28       71.72       71.15       70.58       70.00    
  49  -1000.0     -1000.0     -1000.0     -1000.0     -1000.0     -1000.0     -1000.0       95.64       95.23       94.76    
        94.36       93.88       93.33       92.72       92.03       91.29       90.55       89.81       89.07       88.35    
        87.63       86.92       86.22       85.52       84.84       84.16       83.50       82.85       82.20       81.57    
        80.95       80.33       79.73       79.13       78.54       77.95       77.37       76.80       76.23       75.66    
        75.10       74.54       73.97       73.41       72.85       72.28       71.72       71.15       70.58       70.00    
  50  -1000.0     -1000.0     -1000.0     -1000.0     -1000.0     -1000.0     -1000.0     -1000.0     -1000.0     -1000.0    
      -1000.0     -1000.0     -1000.0     -1000.0     -1000.0     -1000.0     -1000.0     -1000.0     -1000.0     -1000.0    
      -1000.0     -1000.0     -1000.0     -1000.0     -1000.0     -1000.0     -1000.0     -1000.0     -1000.0     -1000.0    
      -1000.0     -1000.0     -1000.0     -1000.0     -1000.0     -1000.0     -1000.0     -1000.0     -1000.0     -1000.0    
      -1000.0     -1000.0     -1000.0     -1000.0     -1000.0     -1000.0     -1000.0     -1000.0     -1000.0       70.00    
1
              HEAD IN LAYER   3 AT END OF TIME STEP   1 IN STRESS PERIOD    1
  ---------------------------------------------------------------------------

            1           2           3           4           5           6           7           8           9          10
           11          12          13          14          15          16          17          18          19          20
           21          22          23          24          25          26          27          28          29          30
           31          32          33          34          35          36          37          38          39          40
[...]
        82.66       81.80       81.00       80.27       79.63       79.09       78.61       78.19       77.82       77.48    
        77.17       76.87       76.57       76.27       75.96       75.61       75.20       74.73       74.23       74.25    
        74.25       74.17       74.01       73.77       73.47       73.08       72.58       71.93       71.07       70.00    
  24  -1000.0       97.61       97.34       96.88       96.31       95.65       94.93       94.15       93.34       92.50    
        91.63       90.73       89.82       88.88       87.93       86.94       86.00       85.08       84.18       83.28    
        82.37       81.49       80.66       79.90       79.25       78.78       78.33       77.95       77.63       77.35    
        77.09       76.84       76.59       76.35       76.09       75.82       75.52       75.21       74.94       74.81    
        74.72       74.60       74.44       74.23       73.96       73.62       73.16       72.51       71.51       70.00    
  25  -1000.0       98.52       98.09       97.48       96.78       96.02       95.21       94.36       93.49       92.60    
        91.69       90.76       89.81       88.85       87.87       86.87       85.89       84.93       83.97       83.03    
        82.10       81.18       80.29       79.46       78.76       78.50       78.02       77.71       77.47       77.25    
        77.04       76.85       76.66       76.48       76.29       76.10       75.90       75.70       75.52       75.38    
        75.24       75.10       74.94       74.76       74.55       74.29       73.94       73.42       72.45       70.00    
  26  -1000.0       97.83       97.56       97.12       96.55       95.90       95.19       94.43       93.63       92.79    
        91.93       91.04       90.13       89.19       88.23       87.23       86.26       85.31       84.37       83.45    
        82.55       81.68       80.85       80.08       79.43       78.95       78.49       78.10       77.78       77.49    
        77.22       76.97       76.73       76.50       76.27       76.05       75.82       75.60       75.39       75.19    
        74.99       74.79       74.56       74.31       74.01       73.65       73.18       72.51       71.51       70.00    
  27  -1000.0       97.38       97.19       96.84       96.37       95.81       95.18       94.50       93.76       92.99    
        92.17       91.33       90.45       89.53       88.59       87.60       86.64       85.70       84.79       83.89    
        83.02       82.18       81.39       80.65       80.00       79.44       78.94       78.50       78.11       77.76    
        77.43       77.13       76.85       76.57       76.31       76.05       75.79       75.53       75.29       75.04    
        74.79       74.54       74.26       73.94       73.59       73.16       72.63       71.95       71.07       70.00    
  28  -1000.0       97.09       96.94       96.66       96.26       95.77       95.21       94.59       93.91       93.18    
        92.41       91.61       90.76       89.87       88.95       87.98       87.04       86.11       85.22       84.34    
        83.49       82.68       81.90       81.18       80.51       79.91       79.37       78.88       78.44       78.04    
        77.68       77.33       77.00       76.69       76.39       76.09       75.80       75.52       75.23       74.95    
        74.66       74.35       74.03       73.67       73.27       72.80       72.26       71.61       70.85       70.00    
  29  -1000.0       96.91       96.79       96.55       96.21       95.78       95.27       94.70       94.07       93.39    
        92.66       91.89       91.07       90.21       89.31       88.36       87.44       86.53       85.65       84.80    
        83.97       83.17       82.40       81.68       81.00       80.37       79.79       79.27       78.79       78.35    
        77.94       77.56       77.19       76.85       76.51       76.18       75.86       75.54       75.22       74.90    
        74.57       74.23       73.87       73.48       73.05       72.57       72.02       71.41       70.73       70.00    
  30  -1000.0       96.80       96.69       96.48       96.18       95.80       95.34       94.81       94.22       93.58    
        92.88       92.14       91.35       90.52       89.64       88.71       87.80       86.91       86.05       85.21    
        84.39       83.61       82.85       82.13       81.44       80.78       80.18       79.63       79.12       78.65    
        78.20       77.79       77.39       77.01       76.64       76.28       75.93       75.58       75.24       74.88    
        74.52       74.15       73.76       73.34       72.89       72.40       71.87       71.28       70.65       70.00    
  31  -1000.0       96.73       96.63       96.45       96.18       95.82       95.40       94.91       94.36       93.75    
        93.08       92.37       91.61       90.79       89.93       89.02       88.13       87.26       86.41       85.58    
        84.78       84.00       83.25       82.53       81.83       81.16       80.54       79.96       79.43       78.93    
        78.46       78.01       77.59       77.18       76.78       76.40       76.02       75.64       75.27       74.89    
        74.50       74.10       73.69       73.25       72.79       72.29       71.76       71.20       70.61       70.00    
  32  -1000.0       96.69       96.60       96.43       96.18       95.86       95.46       95.00       94.48       93.90    
        93.26       92.57       91.83       91.04       90.20       89.31       88.44       87.58       86.74       85.92    
        85.13       84.36       83.61       82.88       82.18       81.50       80.87       80.28       79.73       79.20    
        78.71       78.24       77.79       77.35       76.93       76.52       76.12       75.72       75.32       74.91    
        74.50       74.08       73.65       73.20       72.72       72.22       71.70       71.15       70.58       70.00    
  33  -1000.0       96.67       96.60       96.44       96.21       95.90       95.53       95.09       94.60       94.04    
        93.43       92.76       92.04       91.27       90.45       89.57       88.71       87.87       87.04       86.23    
        85.45       84.68       83.93       83.21       82.51       81.82       81.18       80.58       80.00       79.46    
        78.95       78.46       77.98       77.53       77.08       76.65       76.22       75.80       75.38       74.95    
        74.52       74.08       73.63       73.17       72.69       72.18       71.66       71.12       70.57       70.00    
  34  -1000.0       96.68       96.60       96.46       96.24       95.95       95.60       95.18       94.70       94.17    
        93.58       92.93       92.23       91.47       90.67       89.81       88.96       88.13       87.31       86.52    
        85.73       84.97       84.23       83.51       82.80       82.12       81.47       80.85       80.27       79.71    
        79.18       78.67       78.18       77.70       77.24       76.78       76.33       75.89       75.45       75.00    
        74.56       74.10       73.64       73.16       72.67       72.16       71.64       71.11       70.56       70.00    
  35  -1000.0       96.69       96.62       96.48       96.27       96.00       95.66       95.26       94.80       94.29    
        93.71       93.08       92.40       91.66       90.87       90.02       89.19       88.37       87.56       86.77    
        86.00       85.24       84.50       83.78       83.07       82.39       81.73       81.11       80.51       79.94    
        79.40       78.87       78.36       77.87       77.39       76.91       76.45       75.99       75.52       75.06    
        74.60       74.13       73.65       73.16       72.67       72.15       71.63       71.10       70.55       70.00    
  36  -1000.0       96.71       96.65       96.51       96.31       96.05       95.73       95.34       94.89       94.39    
        93.83       93.22       92.55       91.83       91.05       90.21       89.39       88.58       87.78       87.00    
        86.24       85.48       84.75       84.03       83.32       82.63       81.97       81.34       80.74       80.16    
        79.60       79.06       78.54       78.03       77.53       77.04       76.56       76.08       75.61       75.13    
        74.65       74.17       73.68       73.18       72.67       72.15       71.63       71.09       70.55       70.00    
  37  -1000.0       96.74       96.67       96.55       96.35       96.10       95.78       95.41       94.98       94.49    
        93.94       93.34       92.69       91.98       91.21       90.39       89.57       88.77       87.99       87.21    
        86.45       85.70       84.97       84.25       83.55       82.86       82.20       81.56       80.95       80.36    
        79.80       79.24       78.71       78.18       77.67       77.17       76.67       76.18       75.69       75.19    
        74.70       74.21       73.70       73.20       72.68       72.16       71.63       71.09       70.55       70.00    
  38  -1000.0       96.77       96.71       96.58       96.39       96.15       95.84       95.48       95.05       94.58    
        94.04       93.45       92.81       92.11       91.35       90.54       89.74       88.95       88.17       87.40    
        86.64       85.90       85.17       84.46       83.76       83.07       82.41       81.77       81.15       80.55    
        79.98       79.41       78.87       78.33       77.80       77.29       76.78       76.27       75.76       75.26    
        74.75       74.25       73.74       73.22       72.70       72.17       71.64       71.10       70.55       70.00    
  39  -1000.0       96.80       96.74       96.61       96.43       96.19       95.89       95.53       95.12       94.65    
        94.13       93.55       92.92       92.23       91.48       90.68       89.89       89.10       88.33       87.57    
        86.82       86.08       85.36       84.64       83.94       83.26       82.59       81.95       81.33       80.73    
        80.14       79.57       79.01       78.47       77.93       77.40       76.87       76.35       75.84       75.32    
        74.80       74.29       73.77       73.24       72.72       72.18       71.65       71.10       70.55       70.00    
  40  -1000.0       96.83       96.77       96.64       96.46       96.23       95.93       95.58       95.18       94.72    
        94.20       93.64       93.01       92.33       91.59       90.80       90.02       89.24       88.47       87.72    
        86.97       86.24       85.52       84.81       84.11       83.43       82.76       82.12       81.50       80.89    
        80.29       79.71       79.15       78.59       78.04       77.50       76.96       76.43       75.90       75.38    
        74.85       74.33       73.80       73.27       72.74       72.20       71.66       71.11       70.56       70.00    
  41  -1000.0       96.86       96.80       96.67       96.49       96.25       95.97       95.62       95.22       94.77    
        94.27       93.71       93.09       92.42       91.69       90.91       90.13       89.36       88.60       87.85    
        87.11       86.38       85.66       84.96       84.26       83.58       82.92       82.27       81.64       81.03    
        80.43       79.84       79.26       78.70       78.14       77.59       77.04       76.50       75.97       75.43    
        74.90       74.37       73.83       73.29       72.76       72.21       71.67       71.11       70.56       70.00    
  42  -1000.0     -1000.0       96.82       96.69       96.51       96.28       95.99       95.65       95.26       94.82    
        94.32       93.77       93.16       92.50       91.78       91.00       90.23       89.46       88.71       87.96    
        87.23       86.50       85.79       85.09       84.39       83.71       83.05       82.40       81.77       81.15    
        80.55       79.95       79.37       78.79       78.23       77.67       77.12       76.57       76.02       75.48    
        74.94       74.40       73.86       73.32       72.77       72.23       71.68       71.12       70.56       70.00    
  43  -1000.0     -1000.0     -1000.0       96.70       96.52       96.28       96.00       95.67       95.28       94.85    
        94.36       93.82       93.22       92.56       91.85       91.08       90.31       89.55       88.80       88.06    
        87.33       86.61       85.90       85.20       84.51       83.83       83.17       82.52       81.88       81.26    
        80.65       80.05       79.46       78.88       78.31       77.74       77.18       76.63       76.07       75.53    
        74.98       74.43       73.89       73.34       72.79       72.24       71.69       71.13       70.57       70.00    
  44  -1000.0     -1000.0     -1000.0     -1000.0       96.51       96.28       96.00       95.67       95.30       94.87    
        94.39       93.85       93.26       92.61       91.91       91.14       90.38       89.63       88.88       88.15    
        87.42       86.70       85.99       85.29       84.60       83.93       83.27       82.61       81.98       81.35    
        80.73       80.13       79.54       78.95       78.37       77.80       77.23       76.67       76.12       75.56    
        75.01       74.46       73.91       73.36       72.81       72.25       71.69       71.13       70.57       70.00    
  45  -1000.0     -1000.0     -1000.0     -1000.0     -1000.0       96.26       95.98       95.66       95.29       94.87    
        94.40       93.87       93.29       92.65       91.95       91.19       90.44       89.69       88.95       88.21    
        87.49       86.77       86.07       85.37       84.68       84.01       83.35       82.69       82.05       81.42    
        80.81       80.20       79.60       79.01       78.43       77.85       77.28       76.72       76.15       75.60    
        75.04       74.49       73.93       73.38       72.82       72.26       71.70       71.14       70.57       70.00    
  46  -1000.0     -1000.0     -1000.0     -1000.0     -1000.0     -1000.0       95.95       95.64       95.28       94.87    
        94.41       93.89       93.31       92.68       91.99       91.23       90.48       89.74       89.00       88.27    
        87.55       86.83       86.13       85.43       84.75       84.07       83.41       82.76       82.11       81.48    
        80.86       80.25       79.65       79.06       78.47       77.89       77.32       76.75       76.18       75.62    
        75.06       74.51       73.95       73.39       72.83       72.27       71.71       71.14       70.57       70.00    
  47  -1000.0     -1000.0     -1000.0     -1000.0     -1000.0     -1000.0     -1000.0       95.59       95.24       94.85    
        94.40       93.89       93.33       92.70       92.01       91.26       90.51       89.77       89.04       88.31    
        87.59       86.87       86.17       85.48       84.79       84.12       83.45       82.80       82.16       81.53    
        80.90       80.29       79.69       79.09       78.50       77.92       77.34       76.77       76.21       75.64    
        75.08       74.52       73.96       73.40       72.84       72.28       71.71       71.15       70.57       70.00    
  48  -1000.0     -1000.0     -1000.0     -1000.0     -1000.0     -1000.0     -1000.0     -1000.0       95.20       94.81    
        94.38       93.89       93.33       92.71       92.03       91.28       90.53       89.80       89.06       88.33    
        87.62       86.90       86.20       85.51       84.82       84.15       83.49       82.83       82.19       81.56    
        80.93       80.32       79.71       79.12       78.52       77.94       77.36       76.79       76.22       75.66    
        75.09       74.53       73.97       73.41       72.85       72.28       71.72       71.15       70.58       70.00    
  49  -1000.0     -1000.0     -1000.0     -1000.0     -1000.0     -1000.0     -1000.0     -1000.0     -1000.0       94.76    
        94.36       93.88       93.33       92.72       92.03       91.29       90.55       89.81       89.07       88.35    
        87.63       86.92       86.22       85.52       84.84       84.16       83.50       82.85       82.20       81.57    
        80.95       80.33       79.73       79.13       78.54       77.95       77.37       76.80       76.23       75.66    
        75.10       74.53       73.97       73.41       72.85       72.28       71.72       71.15       70.58       70.00    
  50  -1000.0     -1000.0     -1000.0     -1000.0     -1000.0     -1000.0     -1000.0     -1000.0     -1000.0     -1000.0    
      -1000.0     -1000.0     -1000.0     -1000.0     -1000.0     -1000.0     -1000.0     -1000.0     -1000.0     -1000.0    
      -1000.0     -1000.0     -1000.0     -1000.0     -1000.0     -1000.0     -1000.0     -1000.0     -1000.0     -1000.0    
      -1000.0     -1000.0     -1000.0     -1000.0     -1000.0     -1000.0     -1000.0     -1000.0     -1000.0     -1000.0    
      -1000.0     -1000.0     -1000.0     -1000.0     -1000.0     -1000.0     -1000.0     -1000.0     -1000.0       70.00    

 HEAD WILL BE SAVED ON UNIT   51 AT END OF TIME STEP    1, STRESS PERIOD    1

 DRAWDOWN WILL BE SAVED ON UNIT   52 AT END OF TIME STEP    1, STRESS PERIOD    1
1
  VOLUMETRIC BUDGET FOR ENTIRE MODEL AT END OF TIME STEP    1, STRESS PERIOD   1
  ------------------------------------------------------------------------------

     CUMULATIVE VOLUMES      L**3       RATES FOR THIS TIME STEP      L**3/T
     ------------------                 ------------------------

           IN:                                      IN:
           ---                                      ---
             STORAGE =           0.0000               STORAGE =           0.0000
       CONSTANT HEAD =           0.0000         CONSTANT HEAD =           0.0000
               WELLS =         375.0000                 WELLS =         375.0000
       RIVER LEAKAGE =        9576.6016         RIVER LEAKAGE =        9576.6016
                  ET =           0.0000                    ET =           0.0000
            RECHARGE =       20160.0000              RECHARGE =       20160.0000

            TOTAL IN =       30111.6016              TOTAL IN =       30111.6016

          OUT:                                     OUT:
          ----                                     ----
             STORAGE =           0.0000               STORAGE =           0.0000
       CONSTANT HEAD =       11110.7910         CONSTANT HEAD =       11110.7910
               WELLS =        6000.0000                 WELLS =        6000.0000
       RIVER LEAKAGE =        5484.7026         RIVER LEAKAGE =        5484.7026
                  ET =        7516.0361                    ET =        7516.0361
            RECHARGE =           0.0000              RECHARGE =           0.0000

           TOTAL OUT =       30111.5312             TOTAL OUT =       30111.5312

            IN - OUT =       7.0312E-02              IN - OUT =       7.0312E-02

 PERCENT DISCREPANCY =           0.00     PERCENT DISCREPANCY =           0.00






         TIME SUMMARY AT END OF TIME STEP    1 IN STRESS PERIOD    1
                    SECONDS     MINUTES      HOURS       DAYS        YEARS
                    -----------------------------------------------------------
   TIME STEP LENGTH  86400.      1440.0      24.000      1.0000     2.73785E-03
 STRESS PERIOD TIME  86400.      1440.0      24.000      1.0000     2.73785E-03
         TOTAL TIME  86400.      1440.0      24.000      1.0000     2.73785E-03
1

 Run end date and time (yyyy/mm/dd hh:mm:ss): 2026/02/24 16:21:39
 Elapsed run time: 12.862 Seconds

