                                  MODFLOW-2005     
      U.S. GEOLOGICAL SURVEY MODULAR FINITE-DIFFERENCE GROUND-WATER FLOW MODEL
                            VERSION 1.12.00 2/3/2017

 LIST FILE: static_ensemble_2222222.list
                         UNIT    2

 OPENING static_ensemble_2222222.dis
 FILE TYPE:DIS   UNIT   11   STATUS:OLD    
 FORMAT:FORMATTED              ACCESS:SEQUENTIAL          

 OPENING static_ensemble_2222222.bas
 FILE TYPE:BAS6   UNIT   13   STATUS:OLD    
 FORMAT:FORMATTED              ACCESS:SEQUENTIAL          

 OPENING static_ensemble_2222222.lpf
 FILE TYPE:LPF   UNIT   15   STATUS:OLD    
 FORMAT:FORMATTED              ACCESS:SEQUENTIAL          

 OPENING static_ensemble_2222222.evt
 FILE TYPE:EVT   UNIT   22   STATUS:OLD    
 FORMAT:FORMATTED              ACCESS:SEQUENTIAL          

 OPENING static_ensemble_2222222.rch
 FILE TYPE:RCH   UNIT   19   STATUS:OLD    
 FORMAT:FORMATTED              ACCESS:SEQUENTIAL          

 OPENING static_ensemble_2222222.riv
 FILE TYPE:RIV   UNIT   18   STATUS:OLD    
 FORMAT:FORMATTED              ACCESS:SEQUENTIAL          

 OPENING static_ensemble_2222222.wel
 FILE TYPE:WEL   UNIT   20   STATUS:OLD    
 FORMAT:FORMATTED              ACCESS:SEQUENTIAL          

 OPENING static_ensemble_2222222.oc
 FILE TYPE:OC   UNIT   14   STATUS:OLD    
 FORMAT:FORMATTED              ACCESS:SEQUENTIAL          

 OPENING static_ensemble_2222222.pcg
 FILE TYPE:PCG   UNIT   27   STATUS:OLD    
 FORMAT:FORMATTED              ACCESS:SEQUENTIAL          

 OPENING static_ensemble_2222222.cbc
 FILE TYPE:DATA(BINARY)   UNIT   53   STATUS:REPLACE
 FORMAT:UNFORMATTED            ACCESS:STREAM              

 OPENING static_ensemble_2222222.hds
 FILE TYPE:DATA(BINARY)   UNIT   51   STATUS:REPLACE
 FORMAT:UNFORMATTED            ACCESS:STREAM              

 OPENING static_ensemble_2222222.ddn
 FILE TYPE:DATA(BINARY)   UNIT   52   STATUS:REPLACE
 FORMAT:UNFORMATTED            ACCESS:STREAM              

 BAS -- BASIC PACKAGE, VERSION 7, 5/2/2005 INPUT READ FROM UNIT   13
 
 MODFLOW was compiled using mixed precision
 Precision of REAL variables:           6
 Precision of DOUBLE PRECISION variables:          15

 DISCRETIZATION INPUT DATA READ FROM UNIT   11
 # DIS package for MODFLOW-2005 generated by Flopy 3.9.5
    3 LAYERS        50 ROWS        50 COLUMNS
    1 STRESS PERIOD(S) IN SIMULATION
 MODEL TIME UNIT IS DAYS
 MODEL LENGTH UNIT IS METERS
  Confining bed flag for each layer:
   0   0   0

                     DELR =   1000.00    

                     DELC =   1000.00    



           TOP ELEVATION OF LAYER 1
 READING ON UNIT   11 WITH FORMAT: (50E15.6)           



             MODEL LAYER BOTTOM EL. FOR LAYER   1
 READING ON UNIT   11 WITH FORMAT: (50E15.6)           



             MODEL LAYER BOTTOM EL. FOR LAYER   2
 READING ON UNIT   11 WITH FORMAT: (50E15.6)           



             MODEL LAYER BOTTOM EL. FOR LAYER   3
 READING ON UNIT   11 WITH FORMAT: (50E15.6)           


 STRESS PERIOD     LENGTH       TIME STEPS     MULTIPLIER FOR DELT    SS FLAG
 ----------------------------------------------------------------------------
        1         1.000000          1                    1.000         SS

 STEADY-STATE SIMULATION



 
 # BAS6 package for MODFLOW-2005 generated by Flopy 3.9.5                        
 THE FREE FORMAT OPTION HAS BEEN SELECTED



                     BOUNDARY ARRAY FOR LAYER   1
 READING ON UNIT   13 WITH FORMAT: (50I10)             



                     BOUNDARY ARRAY FOR LAYER   2
 READING ON UNIT   13 WITH FORMAT: (50I10)             



                     BOUNDARY ARRAY FOR LAYER   3
 READING ON UNIT   13 WITH FORMAT: (50I10)             

 AQUIFER HEAD WILL BE SET TO  -999.99     AT ALL NO-FLOW NODES (IBOUND=0).



                       INITIAL HEAD FOR LAYER   1
 READING ON UNIT   13 WITH FORMAT: (50E15.6)           



                       INITIAL HEAD FOR LAYER   2
 READING ON UNIT   13 WITH FORMAT: (50E15.6)           



                       INITIAL HEAD FOR LAYER   3
 READING ON UNIT   13 WITH FORMAT: (50E15.6)           
 # OC package for MODFLOW-2005 generated by Flopy 3.9.5

 OUTPUT CONTROL IS SPECIFIED ONLY AT TIME STEPS FOR WHICH OUTPUT IS DESIRED
 COMPACT CELL-BY-CELL BUDGET FILES WILL BE WRITTEN
 AUXILIARY DATA WILL BE SAVED IN CELL-BY-CELL BUDGET FILES
 HEAD PRINT FORMAT CODE IS   0    DRAWDOWN PRINT FORMAT CODE IS   0
 HEADS WILL BE SAVED ON UNIT   51    DRAWDOWNS WILL BE SAVED ON UNIT   52

 LPF -- LAYER-PROPERTY FLOW PACKAGE, VERSION 7, 5/2/2005
         INPUT READ FROM UNIT   15
 # LPF package for MODFLOW-2005 generated by Flopy 3.9.5
 CELL-BY-CELL FLOWS WILL BE SAVED ON UNIT   53
 HEAD AT CELLS THAT CONVERT TO DRY= -1.00000E+30
 No named parameters
 STORAGECOEFFICIENT OPTION:
 Read storage coefficient rather than specific storage

   LAYER FLAGS:
 LAYER       LAYTYP        LAYAVG         CHANI        LAYVKA        LAYWET
 ---------------------------------------------------------------------------
    1             1             0     1.000E+00             0             0
    2             1             0     1.000E+00             0             0
    3             1             0     1.000E+00             0             0

   INTERPRETATION OF LAYER FLAGS:
                        INTERBLOCK     HORIZONTAL    DATA IN
         LAYER TYPE   TRANSMISSIVITY   ANISOTROPY   ARRAY VKA   WETTABILITY
 LAYER      (LAYTYP)      (LAYAVG)       (CHANI)      (LAYVKA)      (LAYWET)
 ---------------------------------------------------------------------------
    1   CONVERTIBLE      HARMONIC     1.000E+00    VERTICAL K  NON-WETTABLE
    2   CONVERTIBLE      HARMONIC     1.000E+00    VERTICAL K  NON-WETTABLE
    3   CONVERTIBLE      HARMONIC     1.000E+00    VERTICAL K  NON-WETTABLE

 WETTING CAPABILITY IS NOT ACTIVE IN ANY LAYER



              HYD. COND. ALONG ROWS FOR LAYER   1
 READING ON UNIT   15 WITH FORMAT: (50E15.6)           



                VERTICAL HYD. COND. FOR LAYER   1
 READING ON UNIT   15 WITH FORMAT: (50E15.6)           



              HYD. COND. ALONG ROWS FOR LAYER   2
 READING ON UNIT   15 WITH FORMAT: (50E15.6)           



                VERTICAL HYD. COND. FOR LAYER   2
 READING ON UNIT   15 WITH FORMAT: (50E15.6)           



              HYD. COND. ALONG ROWS FOR LAYER   3
 READING ON UNIT   15 WITH FORMAT: (50E15.6)           



                VERTICAL HYD. COND. FOR LAYER   3
 READING ON UNIT   15 WITH FORMAT: (50E15.6)           

 WEL -- WELL PACKAGE, VERSION 7, 5/2/2005 INPUT READ FROM UNIT   20
 # WEL package for MODFLOW-2005 generated by Flopy 3.9.5
 No named parameters
 MAXIMUM OF      3 ACTIVE WELLS AT ONE TIME


     0 Well parameters

 RIV -- RIVER PACKAGE, VERSION 7, 5/2/2005 INPUT READ FROM UNIT   18
 # RIV package for MODFLOW-2005 generated by Flopy 3.9.5
 No named parameters
 MAXIMUM OF     49 ACTIVE RIVER REACHES AT ONE TIME
 CELL-BY-CELL FLOWS WILL BE SAVED ON UNIT   53


     0 River parameters

 EVT -- EVAPOTRANSPIRATION PACKAGE, VERSION 7, 5/2/2005
         INPUT READ FROM UNIT   22
 # EVT package for MODFLOW-2005 generated by Flopy 3.9.5
 No named parameters
 OPTION 3 -- EVAPOTRANSPIRATION FROM HIGHEST ACTIVE NODE IN EACH VERTICAL COLUMN
 CELL-BY-CELL FLOWS WILL BE SAVED ON UNIT   53


     0 Evapotranspiration parameters

 RCH -- RECHARGE PACKAGE, VERSION 7, 5/2/2005 INPUT READ FROM UNIT   19
 # RCH package for MODFLOW-2005 generated by Flopy 3.9.5
 No named parameters
 OPTION 3 -- RECHARGE TO HIGHEST ACTIVE NODE IN EACH VERTICAL COLUMN
 CELL-BY-CELL FLOWS WILL BE SAVED ON UNIT   53


     0 Recharge parameters

 PCG -- CONJUGATE-GRADIENT SOLUTION PACKAGE, VERSION 7, 5/2/2005
 # PCG package for MODFLOW-2005 generated by Flopy 3.9.5
 MAXIMUM OF   5000 CALLS OF SOLUTION ROUTINE
 MAXIMUM OF    500 INTERNAL ITERATIONS PER CALL TO SOLUTION ROUTINE
 MATRIX PRECONDITIONING TYPE :    1



                                    SOLUTION BY THE CONJUGATE-GRADIENT METHOD
                                   -------------------------------------------
                    MAXIMUM NUMBER OF CALLS TO PCG ROUTINE =     5000
                        MAXIMUM ITERATIONS PER CALL TO PCG =      500
                               MATRIX PRECONDITIONING TYPE =        1
        RELAXATION FACTOR (ONLY USED WITH PRECOND. TYPE 1) =    0.97000E+00
 PARAMETER OF POLYNOMIAL PRECOND. = 2 (2) OR IS CALCULATED :        0
                         HEAD CHANGE CRITERION FOR CLOSURE =    0.10000E-04
                     RESIDUAL CHANGE CRITERION FOR CLOSURE =    0.10000E-04
            PCG HEAD AND RESIDUAL CHANGE PRINTOUT INTERVAL =      999
     PRINTING FROM SOLVER IS LIMITED(1) OR SUPPRESSED (>1) =        3
                            STEADY-STATE DAMPING PARAMETER =    0.10000E-01
                               TRANSIENT DAMPING PARAMETER =    0.10000E-01
1
                            STRESS PERIOD NO.    1, LENGTH =   1.000000    
                            -----------------------------------------------

                              NUMBER OF TIME STEPS =     1

                               MULTIPLIER FOR DELT =     1.000

                            INITIAL TIME STEP SIZE =   1.000000    

 WELL NO.  LAYER   ROW   COL   STRESS RATE         
 --------------------------------------------------
      1      3     22     39      -1500.    
      2      1     13     15      -4500.    
      3      1     25     26       375.0    

      3 WELLS

 REACH NO.  LAYER   ROW   COL     STAGE      CONDUCTANCE     BOTTOM EL.         
 -------------------------------------------------------------------------------
      1      1     25      2       100.5           2500.           98.00    
      2      1     25      3       99.50           2500.           97.00    
      3      1     25      4       98.50           2500.           96.00    
      4      1     25      5       97.50           2500.           95.00    
      5      1     25      6       96.50           2500.           94.00    
      6      1     25      7       95.50           2500.           93.00    
      7      1     25      8       94.50           2500.           92.00    
      8      1     25      9       93.50           2500.           91.00    
      9      1     25     10       92.50           2500.           90.00    
     10      1     25     11       91.50           2500.           89.00    
     11      1     25     12       90.50           2500.           88.00    
     12      1     25     13       89.50           2500.           87.00    
     13      1     25     14       88.50           2500.           86.00    
     14      1     25     15       87.50           2500.           85.00    
     15      1     25     16       86.50           2500.           84.00    
     16      1     25     17       85.50           2500.           83.00    
     17      1     25     18       84.50           2500.           82.00    
     18      1     25     19       83.50           2500.           81.00    
     19      1     25     20       82.50           2500.           80.00    
     20      1     25     21       81.50           2500.           79.00    
     21      1     25     22       80.50           2500.           78.00    
     22      1     25     23       79.50           2500.           77.00    
     23      1     25     24       78.50           2500.           76.00    
     24      1     25     25       77.50           2500.           75.00    
     25      1     25     26       77.40           2500.           74.90    
     26      1     25     27       77.30           2500.           74.80    
     27      1     25     28       77.20           2500.           74.70    
     28      1     25     29       77.10           2500.           74.60    
     29      1     25     30       77.00           2500.           74.50    
     30      1     25     31       76.90           2500.           74.40    
     31      1     25     32       76.80           2500.           74.30    
     32      1     25     33       76.70           2500.           74.20    
     33      1     25     34       76.60           2500.           74.10    
     34      1     25     35       76.50           2500.           74.00    
     35      1     25     36       76.40           2500.           73.90    
     36      1     25     37       76.30           2500.           73.80    
     37      1     25     38       76.20           2500.           73.70    
     38      1     25     39       76.10           2500.           73.60    
     39      1     25     40       76.00           2500.           73.50    
     40      1     25     41       75.90           2500.           73.40    
     41      1     25     42       75.80           2500.           73.30    
     42      1     25     43       75.70           2500.           73.20    
     43      1     25     44       75.60           2500.           73.10    
     44      1     25     45       75.50           2500.           73.00    
     45      1     25     46       75.40           2500.           72.90    
     46      1     25     47       75.30           2500.           72.80    
     47      1     25     48       75.20           2500.           72.70    
     48      1     25     49       75.10           2500.           72.60    
     49      1     25     50       75.00           2500.           72.50    

     49 RIVER REACHES



                         ET SURFACE
 READING ON UNIT   22 WITH FORMAT: (50E15.6)           



            EVAPOTRANSPIRATION RATE
 READING ON UNIT   22 WITH FORMAT: (50E15.6)           

         EXTINCTION DEPTH =   10.0000    



                           RECHARGE
 READING ON UNIT   19 WITH FORMAT: (50E15.6)           
 
 SOLVING FOR HEAD 

 OUTPUT CONTROL FOR STRESS PERIOD    1   TIME STEP    1
    SAVE HEAD FOR ALL LAYERS
    SAVE DRAWDOWN FOR ALL LAYERS
    SAVE BUDGET
    PRINT HEAD FOR ALL LAYERS
    PRINT BUDGET
 UBDSV2 SAVING "   CONSTANT HEAD" ON UNIT  53 AT TIME STEP  1, STRESS PERIOD   1
 UBDSV1 SAVING "FLOW RIGHT FACE " ON UNIT  53 AT TIME STEP  1, STRESS PERIOD   1
 UBDSV1 SAVING "FLOW FRONT FACE " ON UNIT  53 AT TIME STEP  1, STRESS PERIOD   1
 UBDSV1 SAVING "FLOW LOWER FACE " ON UNIT  53 AT TIME STEP  1, STRESS PERIOD   1
 UBDSV4 SAVING "   RIVER LEAKAGE" ON UNIT  53 AT TIME STEP  1, STRESS PERIOD   1
 UBDSV3 SAVING "              ET" ON UNIT  53 AT TIME STEP  1, STRESS PERIOD   1
 UBDSV3 SAVING "        RECHARGE" ON UNIT  53 AT TIME STEP  1, STRESS PERIOD   1
1
              HEAD IN LAYER   1 AT END OF TIME STEP   1 IN STRESS PERIOD    1
  ---------------------------------------------------------------------------

            1           2           3           4           5           6           7           8           9          10
           11          12          13          14          15          16          17          18          19          20
           21          22          23          24          25          26          27          28          29          30
           31          32          33          34          35          36          37          38          39          40
           41          42          43          44          45          46          47          48          49          50
 ........................................................................................................................
   1  -1000.0     -1000.0     -1000.0     -1000.0     -1000.0     -1000.0     -1000.0     -1000.0     -1000.0     -1000.0    
      -1000.0     -1000.0     -1000.0     -1000.0     -1000.0     -1000.0     -1000.0     -1000.0     -1000.0     -1000.0    
      -1000.0     -1000.0     -1000.0     -1000.0     -1000.0     -1000.0     -1000.0     -1000.0     -1000.0     -1000.0    
      -1000.0     -1000.0     -1000.0     -1000.0     -1000.0     -1000.0     -1000.0     -1000.0     -1000.0     -1000.0    
      -1000.0     -1000.0     -1000.0     -1000.0     -1000.0     -1000.0     -1000.0     -1000.0     -1000.0       70.00    
   2  -1000.0     -1000.0     -1000.0     -1000.0     -1000.0       87.19       87.07       86.87       86.63       86.36    
        86.13       85.87       85.56       85.23       84.87       84.49       84.10       83.71       83.31       82.91    
        82.50       82.10       81.69       81.27       80.86       80.44       80.03       79.61       79.19       78.77    
        78.36       77.94       77.51       77.09       76.67       76.24       75.82       75.39       74.96       74.52    
        74.09       73.65       73.20       72.76       72.31       71.85       71.39       70.93       70.47       70.00    
   3  -1000.0     -1000.0     -1000.0     -1000.0       87.44       87.29       87.11       86.90       86.64       86.42    
        86.17       85.89       85.58       85.24       84.88       84.50       84.11       83.71       83.31       82.91    
        82.51       82.10       81.69       81.27       80.86       80.44       80.03       79.61       79.19       78.77    
        78.35       77.93       77.51       77.09       76.67       76.24       75.82       75.39       74.96       74.52    
        74.09       73.65       73.20       72.76       72.31       71.85       71.39       70.93       70.47       70.00    
   4  -1000.0     -1000.0     -1000.0       87.71       87.56       87.38       87.18       86.94       86.72       86.48    
        86.21       85.92       85.60       85.26       84.89       84.51       84.12       83.72       83.32       82.91    
        82.51       82.10       81.69       81.27       80.86       80.44       80.02       79.61       79.19       78.77    
        78.35       77.93       77.51       77.09       76.67       76.24       75.82       75.39       74.96       74.52    
        74.09       73.65       73.21       72.76       72.31       71.85       71.40       70.93       70.47       70.00    
   5  -1000.0     -1000.0       87.98       87.84       87.67       87.48       87.26       87.05       86.81       86.56    
        86.27       85.97       85.64       85.29       84.91       84.52       84.12       83.73       83.32       82.92    
        82.51       82.10       81.69       81.27       80.85       80.44       80.02       79.60       79.18       78.77    
        78.35       77.93       77.51       77.09       76.66       76.24       75.82       75.39       74.96       74.53    
        74.09       73.65       73.21       72.76       72.31       71.86       71.40       70.94       70.47       70.00    
   6  -1000.0       88.20       88.09       87.96       87.79       87.59       87.38       87.16       86.91       86.64    
        86.34       86.02       85.68       85.32       84.94       84.54       84.14       83.73       83.33       82.92    
        82.51       82.10       81.68       81.27       80.85       80.43       80.01       79.60       79.18       78.76    
        78.34       77.92       77.50       77.08       76.66       76.24       75.81       75.39       74.96       74.53    
        74.09       73.65       73.21       72.77       72.31       71.86       71.40       70.94       70.47       70.00    
   7  -1000.0       88.28       88.21       88.08       87.91       87.72       87.51       87.28       87.02       86.73    
        86.42       86.09       85.73       85.35       84.96       84.55       84.15       83.74       83.33       82.92    
        82.51       82.10       81.68       81.26       80.85       80.43       80.01       79.59       79.17       78.75    
        78.33       77.91       77.49       77.08       76.66       76.24       75.81       75.39       74.96       74.53    
        74.10       73.66       73.22       72.77       72.32       71.86       71.40       70.94       70.47       70.00    
   8  -1000.0       88.41       88.34       88.22       88.06       87.87       87.65       87.41       87.14       86.83    
        86.51       86.15       85.78       85.39       84.98       84.57       84.16       83.75       83.34       82.93    
        82.52       82.10       81.68       81.26       80.84       80.42       80.00       79.58       79.16       78.74    
        78.32       77.90       77.49       77.07       76.65       76.23       75.81       75.39       74.96       74.53    
        74.10       73.67       73.22       72.78       72.33       71.87       71.41       70.94       70.47       70.00    
   9  -1000.0       88.57       88.51       88.38       88.22       88.03       87.81       87.55       87.27       86.95    
        86.60       86.23       85.83       85.42       85.00       84.58       84.16       83.76       83.35       82.93    
        82.52       82.10       81.68       81.25       80.83       80.41       79.98       79.56       79.14       78.72    
        78.31       77.89       77.47       77.06       76.64       76.23       75.81       75.39       74.97       74.54    
        74.11       73.67       73.23       72.79       72.34       71.88       71.42       70.95       70.48       70.00    
  10  -1000.0       88.76       88.68       88.56       88.40       88.21       87.98       87.71       87.41       87.08    
        86.71       86.31       85.88       85.44       85.00       84.57       84.16       83.76       83.35       82.94    
        82.52       82.10       81.67       81.25       80.82       80.39       79.97       79.55       79.12       78.71    
        78.29       77.87       77.46       77.05       76.64       76.22       75.81       75.39       74.97       74.55    
        74.12       73.68       73.25       72.80       72.35       71.89       71.43       70.95       70.48       70.00    
  11  -1000.0       88.93       88.87       88.76       88.60       88.41       88.17       87.89       87.58       87.23    
        86.83       86.40       85.94       85.45       84.96       84.55       84.16       83.77       83.37       82.95    
        82.53       82.10       81.67       81.24       80.81       80.38       79.95       79.52       79.10       78.68    
        78.27       77.86       77.45       77.04       76.63       76.22       75.81       75.39       74.98       74.56    
        74.13       73.70       73.26       72.82       72.36       71.90       71.44       70.96       70.48       70.00    
  12  -1000.0       89.15       89.10       88.99       88.83       88.63       88.39       88.10       87.77       87.40    
        86.98       86.52       86.00       85.43       84.83       84.50       84.16       83.79       83.39       82.97    
        82.54       82.10       81.67       81.23       80.79       80.35       79.92       79.50       79.07       78.66    
        78.24       77.83       77.43       77.02       76.62       76.21       75.80       75.40       74.98       74.57    
        74.15       73.72       73.28       72.84       72.38       71.92       71.45       70.97       70.49       70.00    
  13  -1000.0       89.42       89.36       89.25       89.09       88.88       88.63       88.33       87.98       87.59    
        87.16       86.67       86.11       85.42       84.41       84.45       84.19       83.83       83.42       82.99    
        82.55       82.11       81.66       81.21       80.76       80.32       79.89       79.46       79.04       78.62    
        78.21       77.80       77.40       77.00       76.60       76.20       75.80       75.40       74.99       74.58    
        74.16       73.74       73.31       72.86       72.41       71.94       71.47       70.99       70.50       70.00    
  14  -1000.0       89.72       89.66       89.55       89.39       89.17       88.90       88.59       88.23       87.82    
        87.37       86.87       86.32       85.71       85.07       84.70       84.32       83.91       83.48       83.03    
        82.57       82.11       81.65       81.19       80.73       80.29       79.85       79.42       79.00       78.58    
        78.17       77.77       77.37       76.98       76.59       76.19       75.80       75.40       75.01       74.60    
        74.19       73.77       73.34       72.90       72.44       71.98       71.50       71.01       70.51       70.00    
  15  -1000.0       90.07       90.01       89.89       89.72       89.49       89.21       88.88       88.50       88.08    
        87.62       87.11       86.57       86.00       85.43       84.95       84.48       84.02       83.55       83.07    
        82.59       82.11       81.63       81.16       80.70       80.24       79.80       79.36       78.94       78.53    
        78.13       77.73       77.34       76.95       76.57       76.18       75.80       75.41       75.02       74.62    
        74.22       73.81       73.38       72.94       72.49       72.01       71.53       71.03       70.52       70.00    
  16  -1000.0       90.46       90.40       90.27       90.09       89.84       89.55       89.20       88.80       88.37    
        87.89       87.37       86.83       86.27       85.70       85.16       84.65       84.14       83.63       83.12    
        82.61       82.10       81.61       81.12       80.65       80.18       79.73       79.30       78.88       78.47    
        78.07       77.69       77.30       76.92       76.55       76.17       75.80       75.42       75.04       74.65    
        74.26       73.85       73.43       73.00       72.54       72.07       71.57       71.06       70.54       70.00    
  17  -1000.0       90.90       90.83       90.70       90.50       90.24       89.92       89.55       89.13       88.67    
        88.18       87.64       87.09       86.51       85.94       85.36       84.80       84.24       83.70       83.15    
        82.62       82.09       81.57       81.07       80.58       80.11       79.66       79.22       78.80       78.40    
        78.01       77.63       77.26       76.89       76.53       76.16       75.80       75.43       75.06       74.69    
        74.31       73.91       73.50       73.07       72.61       72.13       71.63       71.10       70.56       70.00    
  18  -1000.0       91.39       91.32       91.17       90.95       90.67       90.33       89.93       89.49       89.00    
        88.48       87.92       87.35       86.75       86.14       85.53       84.93       84.34       83.76       83.18    
        82.62       82.06       81.52       81.00       80.49       80.01       79.56       79.13       78.71       78.32    
        77.94       77.57       77.21       76.85       76.50       76.15       75.80       75.44       75.09       74.73    
        74.36       73.98       73.58       73.16       72.71       72.22       71.71       71.16       70.59       70.00    
  19  -1000.0       91.95       91.86       91.70       91.46       91.15       90.77       90.35       89.87       89.35    
        88.80       88.21       87.60       86.98       86.34       85.69       85.06       84.43       83.81       83.20    
        82.60       82.01       81.44       80.90       80.38       79.90       79.44       79.01       78.61       78.22    
        77.86       77.50       77.16       76.82       76.48       76.14       75.80       75.46       75.12       74.78    
        74.44       74.08       73.69       73.28       72.83       72.34       71.81       71.24       70.63       70.00    
  20  -1000.0       92.56       92.47       92.28       92.01       91.67       91.26       90.79       90.27       89.72    
        89.12       88.50       87.86       87.20       86.52       85.84       85.17       84.51       83.86       83.21    
        82.56       81.93       81.34       80.77       80.24       79.75       79.29       78.87       78.48       78.11    
        77.76       77.42       77.10       76.78       76.46       76.13       75.81       75.47       75.14       74.83    
        74.52       74.19       73.83       73.43       72.99       72.50       71.95       71.35       70.69       70.00    
  21  -1000.0       93.26       93.15       92.94       92.63       92.24       91.78       91.27       90.70       90.10    
        89.46       88.80       88.11       87.41       86.70       85.97       85.26       84.56       83.89       83.20    
        82.49       81.83       81.19       80.60       80.06       79.56       79.11       78.70       78.33       77.98    
        77.65       77.34       77.04       76.74       76.44       76.13       75.82       75.49       75.14       74.90    
        74.63       74.34       74.00       73.62       73.19       72.70       72.14       71.50       70.78       70.00    
  22  -1000.0       94.04       93.91       93.66       93.31       92.86       92.34       91.77       91.15       90.49    
        89.81       89.09       88.36       87.62       86.86       86.09       85.33       84.59       83.87       83.14    
        82.39       81.67       81.01       80.39       79.83       79.33       78.89       78.50       78.15       77.83    
        77.53       77.25       76.97       76.70       76.43       76.15       75.85       75.51       75.06       74.98    
        74.78       74.52       74.22       73.87       73.46       72.98       72.41       71.73       70.92       70.00    
  23  -1000.0       94.94       94.78       94.48       94.05       93.54       92.95       92.31       91.62       90.91    
        90.16       89.40       88.61       87.82       87.01       86.20       85.39       84.59       83.80       83.02    
        82.24       81.48       80.77       80.12       79.54       79.05       78.63       78.27       77.96       77.67    
        77.40       77.15       76.91       76.67       76.43       76.19       75.93       75.66       75.37       75.19    
        74.99       74.75       74.48       74.17       73.80       73.35       72.80       72.08       71.15       70.00    
  24  -1000.0       95.97       95.78       95.40       94.87       94.26       93.59       92.87       92.11       91.33    
        90.52       89.70       88.87       88.02       87.16       86.29       85.43       84.58       83.73       82.89    
        82.06       81.25       80.48       79.77       79.16       78.70       78.32       78.01       77.74       77.49    
        77.27       77.06       76.85       76.65       76.45       76.24       76.03       75.82       75.61       75.42    
        75.23       75.03       74.80       74.53       74.22       73.83       73.33       72.64       71.59       70.00    
  25  -1000.0       97.18       96.95       96.43       95.77       95.04       94.26       93.45       92.61       91.76    
        90.89       90.01       89.11       88.21       87.30       86.39       85.47       84.56       83.66       82.76    
        81.86       80.98       80.12       79.31       78.61       78.26       77.94       77.70       77.49       77.30    
        77.13       76.96       76.80       76.64       76.48       76.32       76.16       75.99       75.83       75.68    
        75.52       75.35       75.16       74.96       74.73       74.45       74.09       73.56       72.60       70.00    
  26  -1000.0       96.01       95.82       95.43       94.91       94.30       93.63       92.91       92.16       91.38    
        90.58       89.76       88.92       88.07       87.21       86.35       85.48       84.62       83.77       82.93    
        82.10       81.29       80.52       79.80       79.19       78.73       78.35       78.04       77.76       77.52    
        77.29       77.08       76.88       76.68       76.48       76.29       76.09       75.90       75.70       75.50    
        75.29       75.07       74.82       74.55       74.23       73.84       73.34       72.64       71.59       70.00    
  27  -1000.0       95.02       94.86       94.56       94.13       93.62       93.04       92.40       91.72       91.01    
        90.27       89.51       88.72       87.93       87.12       86.30       85.48       84.67       83.87       83.08    
        82.31       81.56       80.85       80.19       79.61       79.11       78.69       78.33       78.01       77.72    
        77.45       77.20       76.96       76.73       76.50       76.27       76.05       75.82       75.58       75.34    
        75.09       74.83       74.53       74.20       73.82       73.37       72.80       72.08       71.15       70.00    
  28  -1000.0       94.16       94.03       93.79       93.43       92.99       92.48       91.91       91.30       90.65    
        89.97       89.26       88.53       87.79       87.03       86.25       85.48       84.71       83.96       83.21    
        82.49       81.79       81.12       80.50       79.93       79.43       78.99       78.59       78.24       77.91    
        77.61       77.32       77.05       76.78       76.53       76.27       76.01       75.75       75.49       75.21    
        74.93       74.62       74.29       73.91       73.49       73.00       72.43       71.74       70.92       70.00    
  29  -1000.0       93.42       93.31       93.10       92.80       92.42       91.97       91.46       90.91       90.31    
        89.68       89.03       88.35       87.65       86.93       86.20       85.47       84.74       84.03       83.33    
        82.64       81.98       81.35       80.76       80.20       79.70       79.24       78.82       78.44       78.08    
        77.75       77.44       77.14       76.84       76.56       76.27       75.99       75.70       75.41       75.10    
        74.78       74.45       74.08       73.68       73.24       72.73       72.16       71.51       70.78       70.00    
  30  -1000.0       92.77       92.67       92.49       92.23       91.89       91.49       91.04       90.53       89.99    
        89.41       88.80       88.16       87.51       86.83       86.14       85.45       84.76       84.08       83.42    
        82.77       82.14       81.53       80.96       80.42       79.91       79.45       79.01       78.61       78.24    
        77.88       77.54       77.22       76.90       76.59       76.28       75.97       75.66       75.34       75.01    
        74.67       74.30       73.92       73.50       73.04       72.53       71.97       71.36       70.70       70.00    
  31  -1000.0       92.19       92.11       91.95       91.72       91.42       91.06       90.64       90.18       89.68    
        89.15       88.58       87.98       87.37       86.73       86.07       85.42       84.77       84.12       83.49    
        82.87       82.26       81.68       81.13       80.60       80.09       79.62       79.18       78.76       78.37    
        78.00       77.64       77.29       76.95       76.62       76.29       75.96       75.63       75.28       74.93    
        74.57       74.19       73.78       73.35       72.88       72.38       71.84       71.25       70.64       70.00    
  32  -1000.0       91.67       91.60       91.46       91.25       90.98       90.66       90.28       89.86       89.39    
        88.89       88.36       87.81       87.23       86.62       86.00       85.38       84.76       84.15       83.54    
        82.95       82.37       81.80       81.26       80.74       80.24       79.77       79.32       78.90       78.49    
        78.10       77.73       77.36       77.01       76.65       76.30       75.95       75.60       75.24       74.87    
        74.49       74.09       73.67       73.23       72.76       72.27       71.74       71.18       70.60       70.00    
  33  -1000.0       91.22       91.15       91.02       90.84       90.59       90.29       89.94       89.55       89.12    
        88.66       88.16       87.64       87.09       86.52       85.93       85.33       84.74       84.16       83.58    
        83.00       82.44       81.90       81.37       80.86       80.36       79.89       79.44       79.01       78.59    
        78.19       77.80       77.43       77.05       76.68       76.32       75.95       75.58       75.21       74.82    
        74.43       74.02       73.59       73.14       72.67       72.18       71.66       71.13       70.57       70.00    
  34  -1000.0       90.81       90.75       90.63       90.46       90.23       89.96       89.64       89.27       88.87    
        88.44       87.97       87.47       86.95       86.41       85.85       85.28       84.72       84.16       83.60    
        83.05       82.51       81.97       81.46       80.95       80.47       80.00       79.54       79.11       78.68    
        78.27       77.87       77.48       77.10       76.71       76.33       75.95       75.57       75.18       74.78    
        74.38       73.96       73.52       73.07       72.60       72.12       71.61       71.09       70.55       70.00    
  35  -1000.0       90.45       90.39       90.28       90.12       89.91       89.66       89.36       89.02       88.64    
        88.23       87.79       87.32       86.83       86.31       85.77       85.23       84.69       84.15       83.61    
        83.08       82.55       82.03       81.53       81.03       80.55       80.08       79.63       79.19       78.76    
        78.34       77.93       77.53       77.14       76.74       76.35       75.96       75.56       75.16       74.76    
        74.34       73.91       73.47       73.02       72.55       72.07       71.57       71.06       70.53       70.00    
  36  -1000.0       90.12       90.07       89.97       89.82       89.62       89.38       89.10       88.78       88.43    
        88.04       87.62       87.18       86.70       86.21       85.70       85.18       84.65       84.13       83.61    
        83.10       82.58       82.08       81.58       81.10       80.62       80.16       79.70       79.26       78.83    
        78.40       77.99       77.58       77.17       76.77       76.37       75.96       75.56       75.15       74.73    
        74.31       73.88       73.43       72.98       72.51       72.03       71.54       71.03       70.52       70.00    
  37  -1000.0       89.84       89.79       89.69       89.55       89.36       89.13       88.87       88.57       88.23    
        87.86       87.46       87.04       86.59       86.11       85.62       85.12       84.62       84.11       83.61    
        83.11       82.61       82.12       81.63       81.15       80.68       80.22       79.76       79.32       78.88    
        78.46       78.04       77.62       77.21       76.79       76.38       75.97       75.56       75.14       74.72    
        74.29       73.85       73.40       72.95       72.48       72.00       71.51       71.02       70.51       70.00    
  38  -1000.0       89.58       89.54       89.44       89.31       89.13       88.91       88.66       88.37       88.05    
        87.70       87.32       86.91       86.48       86.02       85.55       85.06       84.58       84.09       83.60    
        83.11       82.62       82.14       81.66       81.19       80.72       80.27       79.81       79.37       78.93    
        78.50       78.08       77.65       77.23       76.82       76.40       75.98       75.56       75.13       74.71    
        74.27       73.83       73.38       72.92       72.45       71.98       71.49       71.00       70.50       70.00    
  39  -1000.0       89.36       89.32       89.22       89.09       88.92       88.71       88.47       88.19       87.88    
        87.55       87.18       86.79       86.38       85.94       85.48       85.01       84.54       84.06       83.58    
        83.11       82.63       82.16       81.69       81.22       80.76       80.31       79.86       79.41       78.97    
        78.54       78.11       77.68       77.26       76.84       76.41       75.99       75.56       75.13       74.70    
        74.26       73.81       73.36       72.90       72.44       71.96       71.48       70.99       70.50       70.00    
  40  -1000.0       89.18       89.13       89.03       88.90       88.73       88.53       88.29       88.03       87.73    
        87.41       87.06       86.68       86.28       85.86       85.41       84.95       84.50       84.03       83.57    
        83.10       82.64       82.17       81.71       81.25       80.79       80.34       79.89       79.45       79.01    
        78.57       78.14       77.71       77.28       76.85       76.42       75.99       75.56       75.13       74.69    
        74.25       73.80       73.35       72.89       72.42       71.95       71.47       70.98       70.49       70.00    
  41  -1000.0       89.04       88.97       88.86       88.73       88.56       88.36       88.14       87.88       87.60    
        87.28       86.95       86.58       86.19       85.78       85.35       84.90       84.46       84.01       83.55    
        83.09       82.64       82.18       81.72       81.27       80.82       80.37       79.92       79.48       79.04    
        78.60       78.16       77.73       77.30       76.87       76.43       76.00       75.57       75.13       74.69    
        74.24       73.79       73.34       72.88       72.41       71.94       71.46       70.98       70.49       70.00    
  42  -1000.0       88.88       88.82       88.71       88.58       88.41       88.22       87.99       87.75       87.47    
        87.17       86.84       86.49       86.11       85.71       85.29       84.86       84.42       83.98       83.53    
        83.08       82.63       82.18       81.73       81.28       80.83       80.39       79.94       79.50       79.06    
        78.62       78.18       77.75       77.31       76.88       76.44       76.01       75.57       75.13       74.69    
        74.24       73.79       73.33       72.87       72.40       71.93       71.46       70.97       70.49       70.00    
  43  -1000.0       88.75       88.69       88.58       88.44       88.27       88.08       87.86       87.62       87.36    
        87.07       86.75       86.41       86.04       85.65       85.24       84.81       84.39       83.95       83.52    
        83.07       82.63       82.18       81.74       81.29       80.85       80.40       79.96       79.52       79.08    
        78.64       78.20       77.76       77.33       76.89       76.45       76.01       75.57       75.13       74.68    
        74.24       73.78       73.32       72.86       72.40       71.93       71.45       70.97       70.49       70.00    
  44  -1000.0       88.64       88.57       88.46       88.31       88.14       87.96       87.75       87.51       87.25    
        86.97       86.67       86.33       85.98       85.59       85.19       84.78       84.36       83.93       83.50    
        83.06       82.62       82.18       81.74       81.30       80.86       80.41       79.97       79.53       79.09    
        78.65       78.21       77.78       77.34       76.90       76.46       76.02       75.58       75.13       74.68    
        74.23       73.78       73.32       72.86       72.39       71.92       71.45       70.97       70.49       70.00    
  45  -1000.0       88.57       88.47       88.35       88.20       88.02       87.84       87.64       87.41       87.16    
        86.89       86.59       86.27       85.92       85.55       85.15       84.74       84.33       83.91       83.48    
        83.05       82.62       82.18       81.74       81.30       80.86       80.42       79.98       79.54       79.10    
        78.66       78.22       77.79       77.35       76.91       76.47       76.02       75.58       75.13       74.68    
        74.23       73.78       73.32       72.86       72.39       71.92       71.45       70.97       70.49       70.00    
  46  -1000.0     -1000.0       88.38       88.25       88.10       87.93       87.73       87.53       87.32       87.08    
        86.82       86.53       86.21       85.87       85.51       85.12       84.72       84.31       83.89       83.47    
        83.04       82.61       82.18       81.75       81.31       80.87       80.43       79.99       79.55       79.11    
        78.67       78.23       77.79       77.35       76.91       76.47       76.03       75.58       75.13       74.68    
        74.23       73.78       73.32       72.85       72.39       71.92       71.44       70.97       70.48       70.00    
  47  -1000.0     -1000.0     -1000.0       88.14       88.00       87.84       87.66       87.44       87.23       87.01    
        86.76       86.48       86.17       85.84       85.48       85.09       84.69       84.29       83.88       83.46    
        83.04       82.61       82.18       81.75       81.31       80.87       80.44       80.00       79.56       79.12    
        78.68       78.24       77.80       77.36       76.92       76.47       76.03       75.58       75.13       74.68    
        74.23       73.77       73.32       72.85       72.39       71.92       71.44       70.97       70.48       70.00    
  48  -1000.0     -1000.0     -1000.0     -1000.0       87.89       87.75       87.59       87.39       87.16       86.94    
        86.71       86.44       86.14       85.81       85.46       85.07       84.68       84.28       83.87       83.45    
        83.03       82.61       82.18       81.75       81.31       80.88       80.44       80.00       79.56       79.12    
        78.68       78.24       77.80       77.36       76.92       76.48       76.03       75.58       75.14       74.68    
        74.23       73.77       73.31       72.85       72.38       71.92       71.44       70.96       70.48       70.00    
  49  -1000.0     -1000.0     -1000.0     -1000.0     -1000.0       87.67       87.55       87.37       87.14       86.89    
        86.67       86.42       86.12       85.80       85.44       85.06       84.67       84.27       83.87       83.45    
        83.03       82.61       82.18       81.75       81.31       80.88       80.44       80.00       79.56       79.12    
        78.68       78.24       77.80       77.36       76.92       76.48       76.03       75.58       75.14       74.68    
        74.23       73.77       73.31       72.85       72.38       71.91       71.44       70.96       70.48       70.00    
  50  -1000.0     -1000.0     -1000.0     -1000.0     -1000.0     -1000.0     -1000.0     -1000.0     -1000.0     -1000.0    
      -1000.0     -1000.0     -1000.0     -1000.0     -1000.0     -1000.0     -1000.0     -1000.0     -1000.0     -1000.0    
      -1000.0     -1000.0     -1000.0     -1000.0     -1000.0     -1000.0     -1000.0     -1000.0     -1000.0     -1000.0    
      -1000.0     -1000.0     -1000.0     -1000.0     -1000.0     -1000.0     -1000.0     -1000.0     -1000.0     -1000.0    
      -1000.0     -1000.0     -1000.0     -1000.0     -1000.0     -1000.0     -1000.0     -1000.0     -1000.0       70.00    
1
              HEAD IN LAYER   2 AT END OF TIME STEP   1 IN STRESS PERIOD    1
  ---------------------------------------------------------------------------

            1           2           3           4           5           6           7           8           9          10
           11          12          13          14          15          16          17          18          19          20
           21          22          23          24          25          26          27          28          29          30
           31          32          33          34          35          36          37          38          39          40
           41          42          43          44          45          46          47          48          49          50
 ........................................................................................................................
   1  -1000.0     -1000.0     -1000.0     -1000.0     -1000.0     -1000.0     -1000.0     -1000.0     -1000.0     -1000.0    
      -1000.0     -1000.0     -1000.0     -1000.0     -1000.0     -1000.0     -1000.0     -1000.0     -1000.0     -1000.0    
      -1000.0     -1000.0     -1000.0     -1000.0     -1000.0     -1000.0     -1000.0     -1000.0     -1000.0     -1000.0    
      -1000.0     -1000.0     -1000.0     -1000.0     -1000.0     -1000.0     -1000.0     -1000.0     -1000.0     -1000.0    
      -1000.0     -1000.0     -1000.0     -1000.0     -1000.0     -1000.0     -1000.0     -1000.0     -1000.0       70.00    
   2  -1000.0     -1000.0     -1000.0     -1000.0     -1000.0     -1000.0     -1000.0       86.87       86.63       86.36    
        86.13       85.87       85.56       85.23       84.87       84.49       84.10       83.71       83.31       82.91    
        82.50       82.10       81.69       81.27       80.86       80.44       80.03       79.61       79.19       78.77    
        78.36       77.94       77.51       77.09       76.67       76.24       75.82       75.39       74.96       74.52    
        74.09       73.65       73.20       72.76       72.31       71.85       71.39       70.93       70.47       70.00    
   3  -1000.0     -1000.0     -1000.0     -1000.0     -1000.0     -1000.0       87.11       86.90       86.64       86.42    
        86.17       85.89       85.58       85.24       84.88       84.50       84.11       83.71       83.31       82.91    
        82.51       82.10       81.69       81.27       80.86       80.44       80.03       79.61       79.19       78.77    
        78.35       77.93       77.51       77.09       76.67       76.24       75.82       75.39       74.96       74.52    
        74.09       73.65       73.20       72.76       72.31       71.85       71.39       70.93       70.47       70.00    
   4  -1000.0     -1000.0     -1000.0     -1000.0     -1000.0       87.38       87.18       86.94       86.72       86.48    
        86.21       85.92       85.60       85.26       84.89       84.51       84.12       83.72       83.32       82.91    
        82.51       82.10       81.69       81.27       80.86       80.44       80.02       79.61       79.19       78.77    
        78.35       77.93       77.51       77.09       76.67       76.24       75.82       75.39       74.96       74.52    
        74.09       73.65       73.21       72.76       72.31       71.85       71.40       70.93       70.47       70.00    
   5  -1000.0     -1000.0     -1000.0     -1000.0       87.67       87.48       87.26       87.05       86.81       86.56    
        86.27       85.97       85.64       85.29       84.91       84.52       84.12       83.73       83.32       82.92    
        82.51       82.10       81.69       81.27       80.85       80.44       80.02       79.60       79.18       78.77    
        78.35       77.93       77.51       77.09       76.66       76.24       75.82       75.39       74.96       74.53    
        74.09       73.65       73.21       72.76       72.31       71.86       71.40       70.94       70.47       70.00    
   6  -1000.0     -1000.0     -1000.0       87.96       87.79       87.59       87.38       87.16       86.91       86.64    
        86.34       86.02       85.68       85.32       84.94       84.54       84.14       83.73       83.33       82.92    
        82.51       82.10       81.68       81.27       80.85       80.43       80.01       79.60       79.18       78.76    
        78.34       77.92       77.50       77.08       76.66       76.24       75.81       75.39       74.96       74.53    
        74.09       73.65       73.21       72.77       72.31       71.86       71.40       70.94       70.47       70.00    
   7  -1000.0     -1000.0       88.21       88.08       87.91       87.72       87.51       87.28       87.02       86.73    
        86.42       86.09       85.73       85.35       84.96       84.55       84.15       83.74       83.33       82.92    
        82.51       82.10       81.68       81.26       80.85       80.43       80.01       79.59       79.17       78.75    
        78.33       77.91       77.49       77.08       76.66       76.24       75.81       75.39       74.96       74.53    
        74.10       73.66       73.22       72.77       72.32       71.86       71.40       70.94       70.47       70.00    
   8  -1000.0       88.41       88.34       88.22       88.06       87.87       87.65       87.41       87.14       86.83    
        86.51       86.15       85.78       85.39       84.98       84.57       84.16       83.75       83.34       82.93    
        82.52       82.10       81.68       81.26       80.84       80.42       80.00       79.58       79.16       78.74    
        78.32       77.90       77.49       77.07       76.65       76.23       75.81       75.39       74.96       74.53    
        74.10       73.67       73.22       72.78       72.33       71.87       71.41       70.94       70.47       70.00    
   9  -1000.0       88.57       88.51       88.38       88.22       88.03       87.81       87.55       87.27       86.95    
        86.60       86.23       85.83       85.42       85.00       84.58       84.16       83.76       83.35       82.93    
        82.52       82.10       81.68       81.25       80.83       80.41       79.98       79.56       79.14       78.72    
        78.31       77.89       77.47       77.06       76.64       76.23       75.81       75.39       74.97       74.54    
        74.11       73.67       73.23       72.79       72.34       71.88       71.42       70.95       70.48       70.00    
  10  -1000.0       88.76       88.68       88.56       88.40       88.21       87.98       87.71       87.41       87.08    
        86.71       86.31       85.88       85.44       85.00       84.57       84.16       83.76       83.35       82.94    
        82.52       82.10       81.67       81.25       80.82       80.39       79.97       79.55       79.12       78.71    
        78.29       77.87       77.46       77.05       76.64       76.22       75.81       75.39       74.97       74.55    
        74.12       73.68       73.25       72.80       72.35       71.89       71.43       70.95       70.48       70.00    
  11  -1000.0       88.93       88.87       88.76       88.60       88.41       88.17       87.89       87.58       87.23    
        86.83       86.40       85.94       85.45       84.96       84.55       84.16       83.77       83.37       82.95    
        82.53       82.10       81.67       81.24       80.81       80.38       79.95       79.52       79.10       78.68    
        78.27       77.86       77.45       77.04       76.63       76.22       75.81       75.39       74.98       74.56    
        74.13       73.70       73.26       72.82       72.36       71.90       71.44       70.96       70.48       70.00    
  12  -1000.0       89.15       89.10       88.99       88.83       88.63       88.39       88.10       87.77       87.40    
        86.98       86.52       86.00       85.43       84.83       84.50       84.16       83.79       83.39       82.97    
        82.54       82.10       81.67       81.23       80.79       80.35       79.92       79.50       79.07       78.66    
        78.24       77.83       77.43       77.02       76.62       76.21       75.80       75.40       74.98       74.57    
        74.15       73.72       73.28       72.84       72.38       71.92       71.45       70.97       70.49       70.00    
  13  -1000.0       89.42       89.36       89.25       89.09       88.88       88.63       88.33       87.98       87.59    
        87.16       86.67       86.11       85.42       84.41       84.45       84.19       83.83       83.42       82.99    
        82.55       82.11       81.66       81.21       80.76       80.32       79.89       79.46       79.04       78.62    
        78.21       77.80       77.40       77.00       76.60       76.20       75.80       75.40       74.99       74.58    
        74.16       73.74       73.31       72.86       72.41       71.94       71.47       70.99       70.50       70.00    
  14  -1000.0       89.72       89.66       89.55       89.39       89.17       88.90       88.59       88.23       87.82    
        87.37       86.87       86.32       85.71       85.07       84.70       84.32       83.91       83.48       83.03    
        82.57       82.11       81.65       81.19       80.73       80.29       79.85       79.42       79.00       78.58    
        78.17       77.77       77.37       76.98       76.59       76.19       75.80       75.40       75.01       74.60    
        74.19       73.77       73.34       72.90       72.44       71.98       71.50       71.01       70.51       70.00    
  15  -1000.0       90.07       90.01       89.89       89.72       89.49       89.21       88.88       88.50       88.08    
        87.62       87.11       86.57       86.00       85.43       84.95       84.48       84.02       83.55       83.07    
        82.59       82.11       81.63       81.16       80.70       80.24       79.80       79.36       78.94       78.53    
        78.13       77.73       77.34       76.95       76.57       76.18       75.80       75.41       75.02       74.62    
        74.22       73.81       73.38       72.94       72.49       72.01       71.53       71.03       70.52       70.00    
  16  -1000.0       90.46       90.40       90.27       90.09       89.84       89.55       89.20       88.80       88.37    
        87.89       87.37       86.83       86.27       85.70       85.16       84.65       84.14       83.63       83.12    
        82.61       82.10       81.61       81.12       80.65       80.18       79.73       79.30       78.88       78.47    
        78.07       77.68       77.30       76.92       76.55       76.17       75.80       75.42       75.04       74.65    
        74.26       73.85       73.43       73.00       72.54       72.07       71.57       71.06       70.54       70.00    
  17  -1000.0       90.90       90.83       90.70       90.50       90.24       89.92       89.55       89.13       88.67    
        88.18       87.64       87.09       86.51       85.94       85.36       84.80       84.24       83.70       83.15    
        82.62       82.09       81.57       81.07       80.58       80.11       79.66       79.22       78.80       78.40    
        78.01       77.63       77.26       76.89       76.53       76.16       75.80       75.43       75.06       74.69    
        74.31       73.91       73.50       73.07       72.61       72.13       71.63       71.10       70.56       70.00    
  18  -1000.0       91.39       91.32       91.17       90.95       90.67       90.33       89.93       89.49       89.00    
        88.48       87.92       87.35       86.75       86.14       85.53       84.93       84.34       83.76       83.18    
        82.62       82.06       81.52       81.00       80.49       80.01       79.56       79.13       78.71       78.32    
        77.94       77.57       77.21       76.85       76.50       76.15       75.80       75.44       75.09       74.73    
        74.36       73.98       73.58       73.16       72.71       72.22       71.71       71.16       70.59       70.00    
  19  -1000.0       91.95       91.86       91.70       91.46       91.15       90.77       90.35       89.87       89.35    
        88.80       88.21       87.60       86.98       86.34       85.69       85.06       84.43       83.81       83.20    
        82.60       82.01       81.44       80.90       80.38       79.90       79.44       79.01       78.61       78.22    
        77.86       77.50       77.16       76.82       76.48       76.14       75.80       75.46       75.12       74.78    
        74.44       74.08       73.69       73.28       72.83       72.34       71.81       71.24       70.63       70.00    
  20  -1000.0       92.56       92.47       92.28       92.01       91.67       91.26       90.79       90.27       89.72    
        89.12       88.50       87.86       87.20       86.52       85.84       85.17       84.51       83.86       83.21    
        82.56       81.93       81.34       80.77       80.24       79.75       79.29       78.87       78.48       78.11    
        77.76       77.42       77.10       76.78       76.46       76.13       75.81       75.47       75.14       74.83    
        74.52       74.19       73.83       73.43       72.99       72.50       71.95       71.35       70.69       70.00    
  21  -1000.0       93.26       93.15       92.94       92.63       92.24       91.78       91.27       90.70       90.10    
        89.46       88.80       88.11       87.41       86.70       85.97       85.26       84.56       83.89       83.20    
        82.49       81.83       81.19       80.60       80.06       79.56       79.11       78.70       78.33       77.98    
        77.65       77.34       77.04       76.74       76.44       76.13       75.82       75.49       75.14       74.90    
        74.63       74.34       74.00       73.62       73.19       72.70       72.14       71.50       70.78       70.00    
  22  -1000.0       94.04       93.91       93.66       93.31       92.86       92.34       91.77       91.15       90.49    
        89.81       89.09       88.36       87.62       86.86       86.09       85.33       84.59       83.87       83.14    
        82.39       81.67       81.01       80.39       79.83       79.33       78.89       78.50       78.15       77.83    
        77.53       77.25       76.97       76.70       76.43       76.15       75.85       75.51       75.05       74.98    
        74.78       74.52       74.22       73.87       73.46       72.98       72.41       71.73       70.92       70.00    
  23  -1000.0       94.94       94.78       94.48       94.05       93.54       92.95       92.31       91.62       90.91    
        90.16       89.40       88.61       87.82       87.01       86.20       85.39       84.59       83.80       83.02    
        82.24       81.48       80.77       80.12       79.54       79.05       78.63       78.27       77.96       77.67    
        77.40       77.15       76.91       76.67       76.43       76.19       75.93       75.66       75.37       75.19    
        74.99       74.75       74.48       74.17       73.80       73.35       72.80       72.08       71.15       70.00    
  24  -1000.0       95.97       95.78       95.40       94.87       94.26       93.59       92.87       92.11       91.33    
        90.52       89.70       88.87       88.02       87.16       86.29       85.43       84.58       83.73       82.89    
        82.06       81.25       80.48       79.77       79.16       78.70       78.32       78.01       77.74       77.49    
        77.27       77.06       76.85       76.65       76.45       76.24       76.03       75.82       75.61       75.42    
        75.23       75.03       74.80       74.53       74.22       73.83       73.33       72.64       71.59       70.00    
  25  -1000.0       97.18       96.95       96.43       95.77       95.04       94.26       93.45       92.61       91.76    
        90.89       90.01       89.11       88.21       87.30       86.39       85.47       84.56       83.66       82.76    
        81.86       80.99       80.13       79.32       78.62       78.27       77.95       77.71       77.50       77.31    
        77.13       76.96       76.80       76.64       76.48       76.32       76.15       75.99       75.83       75.67    
        75.51       75.34       75.15       74.95       74.72       74.43       74.07       73.54       72.56       70.00    
  26  -1000.0       96.01       95.82       95.43       94.91       94.30       93.63       92.91       92.16       91.38    
        90.58       89.76       88.92       88.07       87.21       86.35       85.48       84.62       83.77       82.93    
        82.10       81.29       80.52       79.80       79.19       78.73       78.35       78.04       77.76       77.52    
        77.29       77.08       76.88       76.68       76.48       76.29       76.09       75.90       75.70       75.50    
        75.29       75.07       74.82       74.55       74.23       73.84       73.34       72.64       71.59       70.00    
  27  -1000.0       95.02       94.86       94.56       94.13       93.62       93.04       92.40       91.72       91.01    
        90.27       89.51       88.72       87.93       87.12       86.30       85.48       84.67       83.87       83.08    
        82.31       81.56       80.85       80.19       79.61       79.11       78.69       78.33       78.01       77.72    
        77.45       77.20       76.96       76.73       76.50       76.27       76.05       75.82       75.58       75.35    
        75.09       74.83       74.53       74.20       73.82       73.37       72.80       72.08       71.15       70.00    
  28  -1000.0       94.16       94.03       93.79       93.43       92.99       92.48       91.91       91.30       90.65    
        89.97       89.26       88.53       87.79       87.03       86.25       85.48       84.71       83.96       83.21    
        82.49       81.79       81.12       80.50       79.93       79.43       78.99       78.59       78.24       77.91    
        77.61       77.32       77.05       76.78       76.53       76.27       76.01       75.75       75.49       75.21    
        74.93       74.62       74.29       73.91       73.49       73.00       72.43       71.74       70.92       70.00    
  29  -1000.0       93.42       93.31       93.10       92.80       92.42       91.97       91.46       90.91       90.31    
        89.68       89.03       88.35       87.65       86.93       86.20       85.47       84.74       84.03       83.33    
        82.64       81.98       81.35       80.76       80.20       79.70       79.24       78.82       78.44       78.08    
        77.75       77.44       77.14       76.84       76.56       76.27       75.99       75.70       75.41       75.10    
        74.78       74.45       74.08       73.68       73.24       72.73       72.16       71.51       70.78       70.00    
  30  -1000.0       92.77       92.67       92.49       92.23       91.89       91.49       91.04       90.53       89.99    
        89.41       88.80       88.16       87.51       86.83       86.14       85.45       84.76       84.08       83.42    
        82.77       82.14       81.53       80.96       80.42       79.91       79.45       79.01       78.61       78.24    
        77.88       77.54       77.22       76.90       76.59       76.28       75.97       75.66       75.34       75.01    
        74.67       74.30       73.92       73.50       73.04       72.53       71.97       71.36       70.70       70.00    
  31  -1000.0       92.19       92.11       91.95       91.72       91.42       91.06       90.64       90.18       89.68    
        89.15       88.58       87.98       87.37       86.73       86.07       85.42       84.77       84.12       83.49    
        82.87       82.26       81.68       81.13       80.60       80.09       79.62       79.18       78.76       78.37    
        78.00       77.64       77.29       76.95       76.62       76.29       75.96       75.63       75.28       74.93    
        74.57       74.19       73.78       73.35       72.88       72.38       71.84       71.25       70.64       70.00    
  32  -1000.0       91.67       91.60       91.46       91.25       90.98       90.66       90.28       89.86       89.39    
        88.89       88.36       87.81       87.23       86.62       86.00       85.38       84.76       84.15       83.54    
        82.95       82.37       81.80       81.26       80.74       80.24       79.77       79.32       78.90       78.49    
        78.10       77.73       77.36       77.01       76.65       76.30       75.95       75.60       75.24       74.87    
        74.49       74.09       73.67       73.23       72.76       72.27       71.74       71.18       70.60       70.00    
  33  -1000.0       91.22       91.15       91.02       90.84       90.59       90.29       89.94       89.55       89.12    
        88.66       88.16       87.64       87.09       86.52       85.93       85.33       84.74       84.16       83.58    
        83.00       82.44       81.90       81.37       80.86       80.36       79.89       79.44       79.01       78.59    
        78.19       77.80       77.43       77.05       76.68       76.32       75.95       75.58       75.21       74.82    
        74.43       74.02       73.59       73.14       72.67       72.18       71.66       71.13       70.57       70.00    
  34  -1000.0       90.81       90.75       90.63       90.46       90.23       89.96       89.64       89.27       88.87    
        88.44       87.97       87.47       86.95       86.41       85.85       85.28       84.72       84.16       83.60    
        83.05       82.51       81.97       81.46       80.95       80.47       80.00       79.54       79.11       78.68    
        78.27       77.87       77.48       77.10       76.71       76.33       75.95       75.57       75.18       74.78    
        74.38       73.96       73.52       73.07       72.60       72.12       71.61       71.09       70.55       70.00    
  35  -1000.0       90.45       90.39       90.28       90.12       89.91       89.66       89.36       89.02       88.64    
        88.23       87.79       87.32       86.83       86.31       85.77       85.23       84.69       84.15       83.61    
        83.08       82.55       82.03       81.53       81.03       80.55       80.08       79.63       79.19       78.76    
        78.34       77.93       77.53       77.14       76.74       76.35       75.96       75.56       75.16       74.75    
        74.34       73.91       73.47       73.02       72.55       72.07       71.57       71.06       70.53       70.00    
  36  -1000.0       90.12       90.07       89.97       89.82       89.62       89.38       89.10       88.78       88.43    
        88.04       87.62       87.18       86.70       86.21       85.70       85.18       84.65       84.13       83.61    
        83.10       82.58       82.08       81.58       81.10       80.62       80.16       79.70       79.26       78.83    
        78.40       77.99       77.58       77.17       76.77       76.37       75.96       75.56       75.15       74.73    
        74.31       73.88       73.43       72.98       72.51       72.03       71.54       71.03       70.52       70.00    
  37  -1000.0       89.84       89.79       89.69       89.55       89.36       89.13       88.87       88.57       88.23    
        87.86       87.46       87.04       86.59       86.11       85.62       85.12       84.62       84.11       83.61    
        83.11       82.61       82.12       81.63       81.15       80.68       80.22       79.76       79.32       78.88    
        78.46       78.03       77.62       77.20       76.79       76.38       75.97       75.56       75.14       74.72    
        74.29       73.85       73.40       72.95       72.48       72.00       71.51       71.02       70.51       70.00    
  38  -1000.0       89.58       89.54       89.44       89.31       89.13       88.91       88.66       88.37       88.05    
        87.70       87.32       86.91       86.48       86.02       85.55       85.06       84.58       84.09       83.60    
        83.11       82.62       82.14       81.66       81.19       80.72       80.27       79.81       79.37       78.93    
        78.50       78.08       77.65       77.23       76.82       76.40       75.98       75.56       75.13       74.71    
        74.27       73.83       73.38       72.92       72.45       71.98       71.49       71.00       70.50       70.00    
  39  -1000.0       89.36       89.32       89.22       89.09       88.92       88.71       88.47       88.19       87.88    
        87.55       87.18       86.79       86.38       85.94       85.48       85.01       84.54       84.06       83.58    
        83.11       82.63       82.16       81.69       81.22       80.76       80.31       79.86       79.41       78.97    
        78.54       78.11       77.68       77.26       76.84       76.41       75.99       75.56       75.13       74.70    
        74.26       73.81       73.36       72.90       72.44       71.96       71.48       70.99       70.50       70.00    
  40  -1000.0       89.18       89.13       89.03       88.90       88.73       88.53       88.29       88.03       87.73    
        87.41       87.06       86.68       86.28       85.86       85.41       84.95       84.50       84.03       83.57    
        83.10       82.64       82.17       81.71       81.25       80.79       80.34       79.89       79.45       79.01    
        78.57       78.14       77.71       77.28       76.85       76.42       75.99       75.56       75.13       74.69    
        74.25       73.80       73.35       72.89       72.42       71.95       71.47       70.98       70.49       70.00    
  41  -1000.0       89.04       88.97       88.86       88.73       88.56       88.36       88.14       87.88       87.60    
        87.28       86.95       86.58       86.19       85.78       85.35       84.90       84.46       84.01       83.55    
        83.09       82.64       82.18       81.72       81.27       80.82       80.37       79.92       79.48       79.04    
        78.60       78.16       77.73       77.30       76.87       76.43       76.00       75.57       75.13       74.69    
        74.24       73.79       73.34       72.88       72.41       71.94       71.46       70.98       70.49       70.00    
  42  -1000.0       88.88       88.82       88.71       88.58       88.41       88.22       87.99       87.75       87.47    
        87.17       86.84       86.49       86.11       85.71       85.29       84.86       84.42       83.98       83.53    
        83.08       82.63       82.18       81.73       81.28       80.83       80.39       79.94       79.50       79.06    
        78.62       78.18       77.75       77.31       76.88       76.44       76.01       75.57       75.13       74.69    
        74.24       73.79       73.33       72.87       72.40       71.93       71.46       70.97       70.49       70.00    
  43  -1000.0       88.75       88.69       88.58       88.44       88.27       88.08       87.86       87.62       87.36    
        87.07       86.75       86.41       86.04       85.65       85.24       84.81       84.39       83.95       83.52    
        83.07       82.63       82.18       81.74       81.29       80.85       80.40       79.96       79.52       79.08    
        78.64       78.20       77.76       77.33       76.89       76.45       76.01       75.57       75.13       74.68    
        74.24       73.78       73.32       72.86       72.40       71.93       71.45       70.97       70.49       70.00    
  44  -1000.0     -1000.0       88.57       88.46       88.31       88.14       87.96       87.75       87.51       87.25    
        86.97       86.67       86.33       85.98       85.59       85.19       84.78       84.36       83.93       83.50    
        83.06       82.62       82.18       81.74       81.30       80.86       80.41       79.97       79.53       79.09    
        78.65       78.21       77.78       77.34       76.90       76.46       76.02       75.58       75.13       74.68    
        74.23       73.78       73.32       72.86       72.39       71.92       71.45       70.97       70.49       70.00    
  45  -1000.0     -1000.0     -1000.0       88.35       88.20       88.02       87.84       87.64       87.41       87.16    
        86.89       86.59       86.27       85.92       85.55       85.15       84.74       84.33       83.91       83.48    
        83.05       82.62       82.18       81.74       81.30       80.86       80.42       79.98       79.54       79.10    
        78.66       78.22       77.79       77.35       76.91       76.47       76.02       75.58       75.13       74.68    
        74.23       73.78       73.32       72.86       72.39       71.92       71.45       70.97       70.49       70.00    
  46  -1000.0     -1000.0     -1000.0     -1000.0       88.10       87.93       87.73       87.53       87.32       87.08    
        86.82       86.53       86.21       85.87       85.51       85.12       84.72       84.31       83.89       83.47    
        83.04       82.61       82.18       81.75       81.31       80.87       80.43       79.99       79.55       79.11    
        78.67       78.23       77.79       77.35       76.91       76.47       76.03       75.58       75.13       74.68    
        74.23       73.78       73.32       72.85       72.39       71.92       71.44       70.97       70.48       70.00    
  47  -1000.0     -1000.0     -1000.0     -1000.0     -1000.0       87.84       87.66       87.44       87.23       87.01    
        86.76       86.48       86.17       85.84       85.48       85.09       84.69       84.29       83.88       83.46    
        83.04       82.61       82.18       81.75       81.31       80.87       80.44       80.00       79.56       79.12    
        78.68       78.24       77.80       77.36       76.92       76.47       76.03       75.58       75.13       74.68    
        74.23       73.77       73.32       72.85       72.39       71.92       71.44       70.97       70.48       70.00    
  48  -1000.0     -1000.0     -1000.0     -1000.0     -1000.0     -1000.0       87.59       87.39       87.16       86.94    
        86.71       86.44       86.14       85.81       85.46       85.07       84.68       84.28       83.87       83.45    
        83.03       82.61       82.18       81.75       81.31       80.88       80.44       80.00       79.56       79.12    
        78.68       78.24       77.80       77.36       76.92       76.48       76.03       75.58       75.14       74.68    
        74.23       73.77       73.31       72.85       72.38       71.92       71.44       70.96       70.48       70.00    
  49  -1000.0     -1000.0     -1000.0     -1000.0     -1000.0     -1000.0     -1000.0       87.37       87.14       86.89    
        86.67       86.42       86.12       85.80       85.44       85.06       84.67       84.27       83.87       83.45    
        83.03       82.61       82.18       81.75       81.31       80.88       80.44       80.00       79.56       79.12    
        78.68       78.24       77.80       77.36       76.92       76.48       76.03       75.58       75.14       74.68    
        74.23       73.77       73.31       72.85       72.38       71.91       71.44       70.96       70.48       70.00    
  50  -1000.0     -1000.0     -1000.0     -1000.0     -1000.0     -1000.0     -1000.0     -1000.0     -1000.0     -1000.0    
      -1000.0     -1000.0     -1000.0     -1000.0     -1000.0     -1000.0     -1000.0     -1000.0     -1000.0     -1000.0    
      -1000.0     -1000.0     -1000.0     -1000.0     -1000.0     -1000.0     -1000.0     -1000.0     -1000.0     -1000.0    
      -1000.0     -1000.0     -1000.0     -1000.0     -1000.0     -1000.0     -1000.0     -1000.0     -1000.0     -1000.0    
      -1000.0     -1000.0     -1000.0     -1000.0     -1000.0     -1000.0     -1000.0     -1000.0     -1000.0       70.00    
1
              HEAD IN LAYER   3 AT END OF TIME STEP   1 IN STRESS PERIOD    1
  ---------------------------------------------------------------------------

            1           2           3           4           5           6           7           8           9          10
           11          12          13          14          15          16          17          18          19          20
           21          22          23          24          25          26          27          28          29          30
           31          32          33          34          35          36          37          38          39          40
[...]
        82.24       81.48       80.77       80.12       79.54       79.05       78.63       78.27       77.96       77.67    
        77.40       77.15       76.91       76.67       76.43       76.19       75.93       75.66       75.37       75.19    
        74.99       74.75       74.48       74.17       73.80       73.35       72.80       72.08       71.15       70.00    
  24  -1000.0       95.97       95.78       95.40       94.87       94.26       93.59       92.87       92.11       91.33    
        90.52       89.70       88.87       88.02       87.16       86.29       85.43       84.58       83.73       82.89    
        82.06       81.25       80.48       79.77       79.16       78.70       78.32       78.01       77.74       77.49    
        77.27       77.06       76.85       76.65       76.45       76.24       76.03       75.82       75.61       75.42    
        75.24       75.03       74.80       74.53       74.22       73.83       73.33       72.64       71.59       70.00    
  25  -1000.0       97.17       96.95       96.43       95.77       95.04       94.26       93.45       92.61       91.76    
        90.89       90.00       89.11       88.21       87.30       86.39       85.47       84.57       83.66       82.76    
        81.87       80.99       80.14       79.33       78.64       78.28       77.96       77.71       77.50       77.31    
        77.13       76.96       76.80       76.64       76.48       76.31       76.15       75.99       75.83       75.67    
        75.50       75.33       75.15       74.94       74.70       74.42       74.05       73.51       72.52       70.00    
  26  -1000.0       96.01       95.82       95.43       94.91       94.30       93.63       92.91       92.16       91.38    
        90.58       89.76       88.92       88.07       87.21       86.35       85.48       84.62       83.77       82.93    
        82.10       81.29       80.52       79.80       79.19       78.73       78.35       78.04       77.76       77.52    
        77.29       77.08       76.88       76.68       76.48       76.29       76.09       75.90       75.70       75.50    
        75.29       75.07       74.82       74.55       74.23       73.84       73.34       72.64       71.59       70.00    
  27  -1000.0       95.02       94.86       94.56       94.13       93.62       93.04       92.40       91.72       91.01    
        90.27       89.50       88.72       87.93       87.12       86.30       85.48       84.67       83.87       83.08    
        82.31       81.56       80.85       80.19       79.61       79.11       78.69       78.33       78.01       77.72    
        77.45       77.20       76.96       76.73       76.50       76.27       76.05       75.82       75.58       75.35    
        75.09       74.83       74.53       74.20       73.82       73.37       72.80       72.08       71.15       70.00    
  28  -1000.0       94.16       94.03       93.79       93.43       92.99       92.48       91.91       91.30       90.65    
        89.97       89.26       88.53       87.79       87.03       86.25       85.48       84.71       83.96       83.21    
        82.49       81.79       81.12       80.50       79.93       79.43       78.99       78.59       78.24       77.91    
        77.61       77.32       77.05       76.78       76.53       76.27       76.01       75.75       75.49       75.21    
        74.93       74.62       74.29       73.91       73.49       73.00       72.43       71.74       70.92       70.00    
  29  -1000.0       93.42       93.31       93.10       92.80       92.42       91.97       91.46       90.91       90.31    
        89.68       89.03       88.35       87.65       86.93       86.20       85.47       84.74       84.03       83.33    
        82.64       81.98       81.35       80.76       80.20       79.70       79.24       78.82       78.44       78.08    
        77.75       77.44       77.14       76.84       76.56       76.27       75.99       75.70       75.41       75.10    
        74.78       74.45       74.08       73.68       73.24       72.73       72.16       71.51       70.78       70.00    
  30  -1000.0       92.77       92.67       92.49       92.23       91.89       91.49       91.04       90.53       89.99    
        89.41       88.80       88.16       87.51       86.83       86.14       85.45       84.76       84.08       83.42    
        82.77       82.14       81.53       80.96       80.42       79.91       79.45       79.01       78.61       78.24    
        77.88       77.54       77.22       76.90       76.59       76.28       75.97       75.66       75.34       75.01    
        74.67       74.30       73.92       73.50       73.04       72.53       71.97       71.36       70.70       70.00    
  31  -1000.0       92.19       92.11       91.95       91.72       91.42       91.06       90.64       90.18       89.68    
        89.15       88.58       87.98       87.37       86.73       86.07       85.42       84.77       84.12       83.49    
        82.87       82.26       81.68       81.13       80.60       80.09       79.62       79.18       78.76       78.37    
        78.00       77.64       77.29       76.95       76.62       76.29       75.96       75.63       75.28       74.93    
        74.57       74.19       73.78       73.35       72.88       72.38       71.84       71.25       70.64       70.00    
  32  -1000.0       91.67       91.60       91.46       91.25       90.98       90.66       90.28       89.86       89.39    
        88.89       88.36       87.81       87.23       86.62       86.00       85.38       84.76       84.15       83.54    
        82.95       82.37       81.80       81.26       80.74       80.24       79.77       79.32       78.90       78.49    
        78.10       77.73       77.36       77.01       76.65       76.30       75.95       75.60       75.24       74.87    
        74.49       74.09       73.67       73.23       72.76       72.27       71.74       71.18       70.60       70.00    
  33  -1000.0       91.22       91.15       91.02       90.84       90.59       90.29       89.94       89.55       89.12    
        88.66       88.16       87.64       87.09       86.52       85.93       85.33       84.74       84.16       83.58    
        83.00       82.44       81.90       81.37       80.86       80.36       79.89       79.44       79.01       78.59    
        78.19       77.80       77.43       77.05       76.68       76.32       75.95       75.58       75.21       74.82    
        74.43       74.02       73.59       73.14       72.67       72.18       71.66       71.13       70.57       70.00    
  34  -1000.0       90.81       90.75       90.63       90.46       90.23       89.96       89.64       89.27       88.87    
        88.44       87.97       87.47       86.95       86.41       85.85       85.28       84.72       84.16       83.60    
        83.05       82.51       81.97       81.46       80.95       80.47       80.00       79.54       79.11       78.68    
        78.27       77.87       77.48       77.10       76.71       76.33       75.95       75.57       75.18       74.78    
        74.38       73.96       73.52       73.07       72.60       72.12       71.61       71.09       70.55       70.00    
  35  -1000.0       90.45       90.39       90.28       90.12       89.91       89.66       89.36       89.02       88.64    
        88.23       87.79       87.32       86.83       86.31       85.77       85.23       84.69       84.15       83.61    
        83.08       82.55       82.03       81.53       81.03       80.55       80.08       79.63       79.19       78.76    
        78.34       77.93       77.53       77.14       76.74       76.35       75.96       75.56       75.16       74.75    
        74.34       73.91       73.47       73.02       72.55       72.07       71.57       71.06       70.53       70.00    
  36  -1000.0       90.12       90.07       89.97       89.82       89.62       89.38       89.10       88.78       88.43    
        88.04       87.62       87.18       86.70       86.21       85.70       85.18       84.65       84.13       83.61    
        83.10       82.58       82.08       81.58       81.10       80.62       80.16       79.70       79.26       78.83    
        78.40       77.99       77.58       77.17       76.77       76.37       75.96       75.56       75.15       74.73    
        74.31       73.88       73.43       72.98       72.51       72.03       71.54       71.03       70.52       70.00    
  37  -1000.0       89.84       89.79       89.69       89.55       89.36       89.13       88.87       88.57       88.23    
        87.86       87.46       87.04       86.59       86.11       85.62       85.12       84.62       84.11       83.61    
        83.11       82.61       82.12       81.63       81.15       80.68       80.22       79.76       79.32       78.88    
        78.46       78.03       77.62       77.20       76.79       76.38       75.97       75.56       75.14       74.72    
        74.29       73.85       73.40       72.95       72.48       72.00       71.51       71.02       70.51       70.00    
  38  -1000.0       89.58       89.54       89.44       89.31       89.13       88.91       88.66       88.37       88.05    
        87.70       87.32       86.91       86.48       86.02       85.55       85.06       84.58       84.09       83.60    
        83.11       82.62       82.14       81.66       81.19       80.72       80.27       79.81       79.37       78.93    
        78.50       78.08       77.65       77.23       76.82       76.40       75.98       75.56       75.13       74.71    
        74.27       73.83       73.38       72.92       72.45       71.98       71.49       71.00       70.50       70.00    
  39  -1000.0       89.36       89.32       89.22       89.09       88.92       88.71       88.47       88.19       87.88    
        87.55       87.18       86.79       86.38       85.94       85.48       85.01       84.54       84.06       83.58    
        83.11       82.63       82.16       81.69       81.22       80.76       80.31       79.86       79.41       78.97    
        78.54       78.11       77.68       77.26       76.84       76.41       75.99       75.56       75.13       74.70    
        74.26       73.81       73.36       72.90       72.44       71.96       71.48       70.99       70.50       70.00    
  40  -1000.0       89.18       89.13       89.03       88.90       88.73       88.53       88.29       88.03       87.73    
        87.41       87.06       86.68       86.28       85.86       85.41       84.95       84.50       84.03       83.57    
        83.10       82.64       82.17       81.71       81.25       80.79       80.34       79.89       79.45       79.01    
        78.57       78.14       77.71       77.28       76.85       76.42       75.99       75.56       75.13       74.69    
        74.25       73.80       73.35       72.89       72.42       71.95       71.47       70.98       70.49       70.00    
  41  -1000.0       89.04       88.97       88.86       88.73       88.56       88.36       88.14       87.88       87.60    
        87.28       86.95       86.58       86.19       85.78       85.35       84.90       84.46       84.01       83.55    
        83.09       82.64       82.18       81.72       81.27       80.82       80.37       79.92       79.48       79.04    
        78.60       78.16       77.73       77.30       76.87       76.43       76.00       75.57       75.13       74.69    
        74.24       73.79       73.34       72.88       72.41       71.94       71.46       70.98       70.49       70.00    
  42  -1000.0     -1000.0       88.82       88.71       88.58       88.41       88.22       87.99       87.75       87.47    
        87.17       86.84       86.49       86.11       85.71       85.29       84.86       84.42       83.98       83.53    
        83.08       82.63       82.18       81.73       81.28       80.83       80.39       79.94       79.50       79.06    
        78.62       78.18       77.75       77.31       76.88       76.44       76.01       75.57       75.13       74.69    
        74.24       73.79       73.33       72.87       72.40       71.93       71.46       70.97       70.49       70.00    
  43  -1000.0     -1000.0     -1000.0       88.58       88.44       88.27       88.08       87.86       87.62       87.36    
        87.07       86.75       86.41       86.04       85.65       85.24       84.81       84.39       83.95       83.52    
        83.07       82.63       82.18       81.74       81.29       80.85       80.40       79.96       79.52       79.08    
        78.64       78.20       77.76       77.33       76.89       76.45       76.01       75.57       75.13       74.68    
        74.24       73.78       73.32       72.86       72.40       71.93       71.45       70.97       70.49       70.00    
  44  -1000.0     -1000.0     -1000.0     -1000.0       88.31       88.14       87.96       87.75       87.51       87.25    
        86.97       86.67       86.33       85.98       85.59       85.19       84.78       84.36       83.93       83.50    
        83.06       82.62       82.18       81.74       81.30       80.86       80.41       79.97       79.53       79.09    
        78.65       78.21       77.78       77.34       76.90       76.46       76.02       75.58       75.13       74.68    
        74.23       73.78       73.32       72.86       72.39       71.92       71.45       70.97       70.49       70.00    
  45  -1000.0     -1000.0     -1000.0     -1000.0     -1000.0       88.02       87.84       87.64       87.41       87.16    
        86.89       86.59       86.27       85.92       85.55       85.15       84.74       84.33       83.91       83.48    
        83.05       82.62       82.18       81.74       81.30       80.86       80.42       79.98       79.54       79.10    
        78.66       78.22       77.79       77.35       76.91       76.47       76.02       75.58       75.13       74.68    
        74.23       73.78       73.32       72.86       72.39       71.92       71.45       70.97       70.49       70.00    
  46  -1000.0     -1000.0     -1000.0     -1000.0     -1000.0     -1000.0       87.73       87.53       87.32       87.08    
        86.82       86.53       86.21       85.87       85.51       85.12       84.72       84.31       83.89       83.47    
        83.04       82.61       82.18       81.75       81.31       80.87       80.43       79.99       79.55       79.11    
        78.67       78.23       77.79       77.35       76.91       76.47       76.03       75.58       75.13       74.68    
        74.23       73.78       73.32       72.85       72.39       71.92       71.44       70.97       70.48       70.00    
  47  -1000.0     -1000.0     -1000.0     -1000.0     -1000.0     -1000.0     -1000.0       87.44       87.23       87.01    
        86.76       86.48       86.17       85.84       85.48       85.09       84.69       84.29       83.88       83.46    
        83.04       82.61       82.18       81.75       81.31       80.87       80.44       80.00       79.56       79.12    
        78.68       78.24       77.80       77.36       76.92       76.47       76.03       75.58       75.13       74.68    
        74.23       73.77       73.32       72.85       72.39       71.92       71.44       70.97       70.48       70.00    
  48  -1000.0     -1000.0     -1000.0     -1000.0     -1000.0     -1000.0     -1000.0     -1000.0       87.16       86.94    
        86.71       86.44       86.14       85.81       85.45       85.07       84.68       84.28       83.87       83.45    
        83.03       82.61       82.18       81.75       81.31       80.88       80.44       80.00       79.56       79.12    
        78.68       78.24       77.80       77.36       76.92       76.48       76.03       75.58       75.14       74.68    
        74.23       73.77       73.31       72.85       72.38       71.91       71.44       70.96       70.48       70.00    
  49  -1000.0     -1000.0     -1000.0     -1000.0     -1000.0     -1000.0     -1000.0     -1000.0     -1000.0       86.89    
        86.67       86.42       86.12       85.80       85.44       85.06       84.67       84.27       83.87       83.45    
        83.03       82.61       82.18       81.75       81.31       80.88       80.44       80.00       79.56       79.12    
        78.68       78.24       77.80       77.36       76.92       76.48       76.03       75.58       75.14       74.68    
        74.23       73.77       73.31       72.85       72.38       71.91       71.44       70.96       70.48       70.00    
  50  -1000.0     -1000.0     -1000.0     -1000.0     -1000.0     -1000.0     -1000.0     -1000.0     -1000.0     -1000.0    
      -1000.0     -1000.0     -1000.0     -1000.0     -1000.0     -1000.0     -1000.0     -1000.0     -1000.0     -1000.0    
      -1000.0     -1000.0     -1000.0     -1000.0     -1000.0     -1000.0     -1000.0     -1000.0     -1000.0     -1000.0    
      -1000.0     -1000.0     -1000.0     -1000.0     -1000.0     -1000.0     -1000.0     -1000.0     -1000.0     -1000.0    
      -1000.0     -1000.0     -1000.0     -1000.0     -1000.0     -1000.0     -1000.0     -1000.0     -1000.0       70.00    

 HEAD WILL BE SAVED ON UNIT   51 AT END OF TIME STEP    1, STRESS PERIOD    1

 DRAWDOWN WILL BE SAVED ON UNIT   52 AT END OF TIME STEP    1, STRESS PERIOD    1
1
  VOLUMETRIC BUDGET FOR ENTIRE MODEL AT END OF TIME STEP    1, STRESS PERIOD   1
  ------------------------------------------------------------------------------

     CUMULATIVE VOLUMES      L**3       RATES FOR THIS TIME STEP      L**3/T
     ------------------                 ------------------------

           IN:                                      IN:
           ---                                      ---
             STORAGE =           0.0000               STORAGE =           0.0000
       CONSTANT HEAD =           0.0000         CONSTANT HEAD =           0.0000
               WELLS =         375.0000                 WELLS =         375.0000
       RIVER LEAKAGE =       66060.3672         RIVER LEAKAGE =       66060.3672
                  ET =           0.0000                    ET =           0.0000
            RECHARGE =       20160.0000              RECHARGE =       20160.0000

            TOTAL IN =       86595.3672              TOTAL IN =       86595.3672

          OUT:                                     OUT:
          ----                                     ----
             STORAGE =           0.0000               STORAGE =           0.0000
       CONSTANT HEAD =       55750.5938         CONSTANT HEAD =       55750.5938
               WELLS =        6000.0000                 WELLS =        6000.0000
       RIVER LEAKAGE =       17656.1719         RIVER LEAKAGE =       17656.1719
                  ET =        7188.4512                    ET =        7188.4512
            RECHARGE =           0.0000              RECHARGE =           0.0000

           TOTAL OUT =       86595.2188             TOTAL OUT =       86595.2188

            IN - OUT =           0.1484              IN - OUT =           0.1484

 PERCENT DISCREPANCY =           0.00     PERCENT DISCREPANCY =           0.00






         TIME SUMMARY AT END OF TIME STEP    1 IN STRESS PERIOD    1
                    SECONDS     MINUTES      HOURS       DAYS        YEARS
                    -----------------------------------------------------------
   TIME STEP LENGTH  86400.      1440.0      24.000      1.0000     2.73785E-03
 STRESS PERIOD TIME  86400.      1440.0      24.000      1.0000     2.73785E-03
         TOTAL TIME  86400.      1440.0      24.000      1.0000     2.73785E-03
1

 Run end date and time (yyyy/mm/dd hh:mm:ss): 2026/02/24 18:07:26
 Elapsed run time: 13.705 Seconds

