                                  MODFLOW-2005     
      U.S. GEOLOGICAL SURVEY MODULAR FINITE-DIFFERENCE GROUND-WATER FLOW MODEL
                            VERSION 1.12.00 2/3/2017

 LIST FILE: static_ensemble_3313331.list
                         UNIT    2

 OPENING static_ensemble_3313331.dis
 FILE TYPE:DIS   UNIT   11   STATUS:OLD    
 FORMAT:FORMATTED              ACCESS:SEQUENTIAL          

 OPENING static_ensemble_3313331.bas
 FILE TYPE:BAS6   UNIT   13   STATUS:OLD    
 FORMAT:FORMATTED              ACCESS:SEQUENTIAL          

 OPENING static_ensemble_3313331.lpf
 FILE TYPE:LPF   UNIT   15   STATUS:OLD    
 FORMAT:FORMATTED              ACCESS:SEQUENTIAL          

 OPENING static_ensemble_3313331.evt
 FILE TYPE:EVT   UNIT   22   STATUS:OLD    
 FORMAT:FORMATTED              ACCESS:SEQUENTIAL          

 OPENING static_ensemble_3313331.rch
 FILE TYPE:RCH   UNIT   19   STATUS:OLD    
 FORMAT:FORMATTED              ACCESS:SEQUENTIAL          

 OPENING static_ensemble_3313331.riv
 FILE TYPE:RIV   UNIT   18   STATUS:OLD    
 FORMAT:FORMATTED              ACCESS:SEQUENTIAL          

 OPENING static_ensemble_3313331.wel
 FILE TYPE:WEL   UNIT   20   STATUS:OLD    
 FORMAT:FORMATTED              ACCESS:SEQUENTIAL          

 OPENING static_ensemble_3313331.oc
 FILE TYPE:OC   UNIT   14   STATUS:OLD    
 FORMAT:FORMATTED              ACCESS:SEQUENTIAL          

 OPENING static_ensemble_3313331.pcg
 FILE TYPE:PCG   UNIT   27   STATUS:OLD    
 FORMAT:FORMATTED              ACCESS:SEQUENTIAL          

 OPENING static_ensemble_3313331.cbc
 FILE TYPE:DATA(BINARY)   UNIT   53   STATUS:REPLACE
 FORMAT:UNFORMATTED            ACCESS:STREAM              

 OPENING static_ensemble_3313331.hds
 FILE TYPE:DATA(BINARY)   UNIT   51   STATUS:REPLACE
 FORMAT:UNFORMATTED            ACCESS:STREAM              

 OPENING static_ensemble_3313331.ddn
 FILE TYPE:DATA(BINARY)   UNIT   52   STATUS:REPLACE
 FORMAT:UNFORMATTED            ACCESS:STREAM              

 BAS -- BASIC PACKAGE, VERSION 7, 5/2/2005 INPUT READ FROM UNIT   13
 
 MODFLOW was compiled using mixed precision
 Precision of REAL variables:           6
 Precision of DOUBLE PRECISION variables:          15

 DISCRETIZATION INPUT DATA READ FROM UNIT   11
 # DIS package for MODFLOW-2005 generated by Flopy 3.9.5
    3 LAYERS        50 ROWS        50 COLUMNS
    1 STRESS PERIOD(S) IN SIMULATION
 MODEL TIME UNIT IS DAYS
 MODEL LENGTH UNIT IS METERS
  Confining bed flag for each layer:
   0   0   0

                     DELR =   1000.00    

                     DELC =   1000.00    



           TOP ELEVATION OF LAYER 1
 READING ON UNIT   11 WITH FORMAT: (50E15.6)           



             MODEL LAYER BOTTOM EL. FOR LAYER   1
 READING ON UNIT   11 WITH FORMAT: (50E15.6)           



             MODEL LAYER BOTTOM EL. FOR LAYER   2
 READING ON UNIT   11 WITH FORMAT: (50E15.6)           



             MODEL LAYER BOTTOM EL. FOR LAYER   3
 READING ON UNIT   11 WITH FORMAT: (50E15.6)           


 STRESS PERIOD     LENGTH       TIME STEPS     MULTIPLIER FOR DELT    SS FLAG
 ----------------------------------------------------------------------------
        1         1.000000          1                    1.000         SS

 STEADY-STATE SIMULATION



 
 # BAS6 package for MODFLOW-2005 generated by Flopy 3.9.5                        
 THE FREE FORMAT OPTION HAS BEEN SELECTED



                     BOUNDARY ARRAY FOR LAYER   1
 READING ON UNIT   13 WITH FORMAT: (50I10)             



                     BOUNDARY ARRAY FOR LAYER   2
 READING ON UNIT   13 WITH FORMAT: (50I10)             



                     BOUNDARY ARRAY FOR LAYER   3
 READING ON UNIT   13 WITH FORMAT: (50I10)             

 AQUIFER HEAD WILL BE SET TO  -999.99     AT ALL NO-FLOW NODES (IBOUND=0).



                       INITIAL HEAD FOR LAYER   1
 READING ON UNIT   13 WITH FORMAT: (50E15.6)           



                       INITIAL HEAD FOR LAYER   2
 READING ON UNIT   13 WITH FORMAT: (50E15.6)           



                       INITIAL HEAD FOR LAYER   3
 READING ON UNIT   13 WITH FORMAT: (50E15.6)           
 # OC package for MODFLOW-2005 generated by Flopy 3.9.5

 OUTPUT CONTROL IS SPECIFIED ONLY AT TIME STEPS FOR WHICH OUTPUT IS DESIRED
 COMPACT CELL-BY-CELL BUDGET FILES WILL BE WRITTEN
 AUXILIARY DATA WILL BE SAVED IN CELL-BY-CELL BUDGET FILES
 HEAD PRINT FORMAT CODE IS   0    DRAWDOWN PRINT FORMAT CODE IS   0
 HEADS WILL BE SAVED ON UNIT   51    DRAWDOWNS WILL BE SAVED ON UNIT   52

 LPF -- LAYER-PROPERTY FLOW PACKAGE, VERSION 7, 5/2/2005
         INPUT READ FROM UNIT   15
 # LPF package for MODFLOW-2005 generated by Flopy 3.9.5
 CELL-BY-CELL FLOWS WILL BE SAVED ON UNIT   53
 HEAD AT CELLS THAT CONVERT TO DRY= -1.00000E+30
 No named parameters
 STORAGECOEFFICIENT OPTION:
 Read storage coefficient rather than specific storage

   LAYER FLAGS:
 LAYER       LAYTYP        LAYAVG         CHANI        LAYVKA        LAYWET
 ---------------------------------------------------------------------------
    1             1             0     1.000E+00             0             0
    2             1             0     1.000E+00             0             0
    3             1             0     1.000E+00             0             0

   INTERPRETATION OF LAYER FLAGS:
                        INTERBLOCK     HORIZONTAL    DATA IN
         LAYER TYPE   TRANSMISSIVITY   ANISOTROPY   ARRAY VKA   WETTABILITY
 LAYER      (LAYTYP)      (LAYAVG)       (CHANI)      (LAYVKA)      (LAYWET)
 ---------------------------------------------------------------------------
    1   CONVERTIBLE      HARMONIC     1.000E+00    VERTICAL K  NON-WETTABLE
    2   CONVERTIBLE      HARMONIC     1.000E+00    VERTICAL K  NON-WETTABLE
    3   CONVERTIBLE      HARMONIC     1.000E+00    VERTICAL K  NON-WETTABLE

 WETTING CAPABILITY IS NOT ACTIVE IN ANY LAYER



              HYD. COND. ALONG ROWS FOR LAYER   1
 READING ON UNIT   15 WITH FORMAT: (50E15.6)           



                VERTICAL HYD. COND. FOR LAYER   1
 READING ON UNIT   15 WITH FORMAT: (50E15.6)           



              HYD. COND. ALONG ROWS FOR LAYER   2
 READING ON UNIT   15 WITH FORMAT: (50E15.6)           



                VERTICAL HYD. COND. FOR LAYER   2
 READING ON UNIT   15 WITH FORMAT: (50E15.6)           



              HYD. COND. ALONG ROWS FOR LAYER   3
 READING ON UNIT   15 WITH FORMAT: (50E15.6)           



                VERTICAL HYD. COND. FOR LAYER   3
 READING ON UNIT   15 WITH FORMAT: (50E15.6)           

 WEL -- WELL PACKAGE, VERSION 7, 5/2/2005 INPUT READ FROM UNIT   20
 # WEL package for MODFLOW-2005 generated by Flopy 3.9.5
 No named parameters
 MAXIMUM OF      3 ACTIVE WELLS AT ONE TIME


     0 Well parameters

 RIV -- RIVER PACKAGE, VERSION 7, 5/2/2005 INPUT READ FROM UNIT   18
 # RIV package for MODFLOW-2005 generated by Flopy 3.9.5
 No named parameters
 MAXIMUM OF     49 ACTIVE RIVER REACHES AT ONE TIME
 CELL-BY-CELL FLOWS WILL BE SAVED ON UNIT   53


     0 River parameters

 EVT -- EVAPOTRANSPIRATION PACKAGE, VERSION 7, 5/2/2005
         INPUT READ FROM UNIT   22
 # EVT package for MODFLOW-2005 generated by Flopy 3.9.5
 No named parameters
 OPTION 3 -- EVAPOTRANSPIRATION FROM HIGHEST ACTIVE NODE IN EACH VERTICAL COLUMN
 CELL-BY-CELL FLOWS WILL BE SAVED ON UNIT   53


     0 Evapotranspiration parameters

 RCH -- RECHARGE PACKAGE, VERSION 7, 5/2/2005 INPUT READ FROM UNIT   19
 # RCH package for MODFLOW-2005 generated by Flopy 3.9.5
 No named parameters
 OPTION 3 -- RECHARGE TO HIGHEST ACTIVE NODE IN EACH VERTICAL COLUMN
 CELL-BY-CELL FLOWS WILL BE SAVED ON UNIT   53


     0 Recharge parameters

 PCG -- CONJUGATE-GRADIENT SOLUTION PACKAGE, VERSION 7, 5/2/2005
 # PCG package for MODFLOW-2005 generated by Flopy 3.9.5
 MAXIMUM OF   5000 CALLS OF SOLUTION ROUTINE
 MAXIMUM OF    500 INTERNAL ITERATIONS PER CALL TO SOLUTION ROUTINE
 MATRIX PRECONDITIONING TYPE :    1



                                    SOLUTION BY THE CONJUGATE-GRADIENT METHOD
                                   -------------------------------------------
                    MAXIMUM NUMBER OF CALLS TO PCG ROUTINE =     5000
                        MAXIMUM ITERATIONS PER CALL TO PCG =      500
                               MATRIX PRECONDITIONING TYPE =        1
        RELAXATION FACTOR (ONLY USED WITH PRECOND. TYPE 1) =    0.97000E+00
 PARAMETER OF POLYNOMIAL PRECOND. = 2 (2) OR IS CALCULATED :        0
                         HEAD CHANGE CRITERION FOR CLOSURE =    0.10000E-04
                     RESIDUAL CHANGE CRITERION FOR CLOSURE =    0.10000E-04
            PCG HEAD AND RESIDUAL CHANGE PRINTOUT INTERVAL =      999
     PRINTING FROM SOLVER IS LIMITED(1) OR SUPPRESSED (>1) =        3
                            STEADY-STATE DAMPING PARAMETER =    0.10000E-01
                               TRANSIENT DAMPING PARAMETER =    0.10000E-01
1
                            STRESS PERIOD NO.    1, LENGTH =   1.000000    
                            -----------------------------------------------

                              NUMBER OF TIME STEPS =     1

                               MULTIPLIER FOR DELT =     1.000

                            INITIAL TIME STEP SIZE =   1.000000    

 WELL NO.  LAYER   ROW   COL   STRESS RATE         
 --------------------------------------------------
      1      3     22     39      -1500.    
      2      1     13     15      -4500.    
      3      1     25     26       375.0    

      3 WELLS

 REACH NO.  LAYER   ROW   COL     STAGE      CONDUCTANCE     BOTTOM EL.         
 -------------------------------------------------------------------------------
      1      1     25      2       100.5           1000.           98.00    
      2      1     25      3       99.50           1000.           97.00    
      3      1     25      4       98.50           1000.           96.00    
      4      1     25      5       97.50           1000.           95.00    
      5      1     25      6       96.50           1000.           94.00    
      6      1     25      7       95.50           1000.           93.00    
      7      1     25      8       94.50           1000.           92.00    
      8      1     25      9       93.50           1000.           91.00    
      9      1     25     10       92.50           1000.           90.00    
     10      1     25     11       91.50           1000.           89.00    
     11      1     25     12       90.50           1000.           88.00    
     12      1     25     13       89.50           1000.           87.00    
     13      1     25     14       88.50           1000.           86.00    
     14      1     25     15       87.50           1000.           85.00    
     15      1     25     16       86.50           1000.           84.00    
     16      1     25     17       85.50           1000.           83.00    
     17      1     25     18       84.50           1000.           82.00    
     18      1     25     19       83.50           1000.           81.00    
     19      1     25     20       82.50           1000.           80.00    
     20      1     25     21       81.50           1000.           79.00    
     21      1     25     22       80.50           1000.           78.00    
     22      1     25     23       79.50           1000.           77.00    
     23      1     25     24       78.50           1000.           76.00    
     24      1     25     25       77.50           1000.           75.00    
     25      1     25     26       77.40           1000.           74.90    
     26      1     25     27       77.30           1000.           74.80    
     27      1     25     28       77.20           1000.           74.70    
     28      1     25     29       77.10           1000.           74.60    
     29      1     25     30       77.00           1000.           74.50    
     30      1     25     31       76.90           1000.           74.40    
     31      1     25     32       76.80           1000.           74.30    
     32      1     25     33       76.70           1000.           74.20    
     33      1     25     34       76.60           1000.           74.10    
     34      1     25     35       76.50           1000.           74.00    
     35      1     25     36       76.40           1000.           73.90    
     36      1     25     37       76.30           1000.           73.80    
     37      1     25     38       76.20           1000.           73.70    
     38      1     25     39       76.10           1000.           73.60    
     39      1     25     40       76.00           1000.           73.50    
     40      1     25     41       75.90           1000.           73.40    
     41      1     25     42       75.80           1000.           73.30    
     42      1     25     43       75.70           1000.           73.20    
     43      1     25     44       75.60           1000.           73.10    
     44      1     25     45       75.50           1000.           73.00    
     45      1     25     46       75.40           1000.           72.90    
     46      1     25     47       75.30           1000.           72.80    
     47      1     25     48       75.20           1000.           72.70    
     48      1     25     49       75.10           1000.           72.60    
     49      1     25     50       75.00           1000.           72.50    

     49 RIVER REACHES



                         ET SURFACE
 READING ON UNIT   22 WITH FORMAT: (50E15.6)           



            EVAPOTRANSPIRATION RATE
 READING ON UNIT   22 WITH FORMAT: (50E15.6)           

         EXTINCTION DEPTH =   10.0000    



                           RECHARGE
 READING ON UNIT   19 WITH FORMAT: (50E15.6)           
 
 SOLVING FOR HEAD 

 OUTPUT CONTROL FOR STRESS PERIOD    1   TIME STEP    1
    SAVE HEAD FOR ALL LAYERS
    SAVE DRAWDOWN FOR ALL LAYERS
    SAVE BUDGET
    PRINT HEAD FOR ALL LAYERS
    PRINT BUDGET
 UBDSV2 SAVING "   CONSTANT HEAD" ON UNIT  53 AT TIME STEP  1, STRESS PERIOD   1
 UBDSV1 SAVING "FLOW RIGHT FACE " ON UNIT  53 AT TIME STEP  1, STRESS PERIOD   1
 UBDSV1 SAVING "FLOW FRONT FACE " ON UNIT  53 AT TIME STEP  1, STRESS PERIOD   1
 UBDSV1 SAVING "FLOW LOWER FACE " ON UNIT  53 AT TIME STEP  1, STRESS PERIOD   1
 UBDSV4 SAVING "   RIVER LEAKAGE" ON UNIT  53 AT TIME STEP  1, STRESS PERIOD   1
 UBDSV3 SAVING "              ET" ON UNIT  53 AT TIME STEP  1, STRESS PERIOD   1
 UBDSV3 SAVING "        RECHARGE" ON UNIT  53 AT TIME STEP  1, STRESS PERIOD   1
1
              HEAD IN LAYER   1 AT END OF TIME STEP   1 IN STRESS PERIOD    1
  ---------------------------------------------------------------------------

            1           2           3           4           5           6           7           8           9          10
           11          12          13          14          15          16          17          18          19          20
           21          22          23          24          25          26          27          28          29          30
           31          32          33          34          35          36          37          38          39          40
           41          42          43          44          45          46          47          48          49          50
 ........................................................................................................................
   1  -1000.0     -1000.0     -1000.0     -1000.0     -1000.0     -1000.0     -1000.0     -1000.0     -1000.0     -1000.0    
      -1000.0     -1000.0     -1000.0     -1000.0     -1000.0     -1000.0     -1000.0     -1000.0     -1000.0     -1000.0    
      -1000.0     -1000.0     -1000.0     -1000.0     -1000.0     -1000.0     -1000.0     -1000.0     -1000.0     -1000.0    
      -1000.0     -1000.0     -1000.0     -1000.0     -1000.0     -1000.0     -1000.0     -1000.0     -1000.0     -1000.0    
      -1000.0     -1000.0     -1000.0     -1000.0     -1000.0     -1000.0     -1000.0     -1000.0     -1000.0       70.00    
   2  -1000.0     -1000.0     -1000.0     -1000.0     -1000.0       78.00       77.95       77.87       77.78       77.68    
        77.60       77.50       77.38       77.26       77.12       76.97       76.81       76.65       76.49       76.33    
        76.16       75.98       75.80       75.62       75.44       75.25       75.06       74.87       74.67       74.47    
        74.27       74.06       73.86       73.65       73.43       73.22       73.00       72.78       72.56       72.33    
        72.11       71.88       71.65       71.42       71.19       70.95       70.72       70.48       70.24       70.00    
   3  -1000.0     -1000.0     -1000.0     -1000.0       78.08       78.03       77.96       77.88       77.78       77.70    
        77.61       77.51       77.39       77.26       77.12       76.97       76.82       76.66       76.50       76.33    
        76.16       75.98       75.81       75.63       75.44       75.26       75.06       74.87       74.67       74.47    
        74.27       74.07       73.86       73.65       73.43       73.22       73.00       72.78       72.56       72.34    
        72.11       71.88       71.65       71.42       71.19       70.95       70.72       70.48       70.24       70.00    
   4  -1000.0     -1000.0     -1000.0       78.17       78.12       78.06       77.98       77.89       77.81       77.73    
        77.63       77.52       77.40       77.27       77.13       76.98       76.82       76.66       76.50       76.34    
        76.17       75.99       75.81       75.63       75.45       75.26       75.07       74.88       74.68       74.48    
        74.28       74.07       73.86       73.65       73.44       73.22       73.00       72.78       72.56       72.34    
        72.11       71.88       71.65       71.42       71.19       70.95       70.72       70.48       70.24       70.00    
   5  -1000.0     -1000.0       78.26       78.21       78.15       78.09       78.00       77.93       77.85       77.75    
        77.65       77.54       77.42       77.29       77.14       76.99       76.83       76.68       76.51       76.35    
        76.17       76.00       75.82       75.64       75.46       75.27       75.08       74.88       74.69       74.49    
        74.28       74.08       73.87       73.66       73.44       73.23       73.01       72.79       72.57       72.34    
        72.12       71.89       71.66       71.42       71.19       70.95       70.72       70.48       70.24       70.00    
   6  -1000.0       78.33       78.29       78.25       78.19       78.11       78.04       77.97       77.88       77.78    
        77.68       77.56       77.44       77.30       77.16       77.01       76.85       76.69       76.53       76.36    
        76.19       76.01       75.84       75.65       75.47       75.28       75.09       74.89       74.70       74.49    
        74.29       74.08       73.88       73.66       73.45       73.23       73.02       72.80       72.57       72.35    
        72.12       71.89       71.66       71.43       71.19       70.96       70.72       70.48       70.24       70.00    
   7  -1000.0       78.35       78.33       78.28       78.22       78.16       78.09       78.01       77.92       77.82    
        77.71       77.59       77.46       77.32       77.18       77.02       76.87       76.71       76.54       76.37    
        76.20       76.03       75.85       75.67       75.48       75.29       75.10       74.91       74.71       74.51    
        74.30       74.09       73.89       73.67       73.46       73.24       73.02       72.80       72.58       72.35    
        72.13       71.90       71.67       71.43       71.20       70.96       70.72       70.48       70.24       70.00    
   8  -1000.0       78.38       78.36       78.32       78.26       78.20       78.13       78.05       77.96       77.86    
        77.74       77.62       77.49       77.35       77.20       77.04       76.88       76.72       76.56       76.39    
        76.22       76.05       75.87       75.69       75.50       75.31       75.12       74.92       74.72       74.52    
        74.31       74.11       73.90       73.68       73.47       73.25       73.03       72.81       72.59       72.36    
        72.13       71.90       71.67       71.44       71.20       70.96       70.72       70.48       70.24       70.00    
   9  -1000.0       78.42       78.40       78.36       78.31       78.25       78.18       78.09       78.00       77.90    
        77.78       77.65       77.52       77.37       77.22       77.06       76.91       76.75       76.58       76.42    
        76.25       76.07       75.89       75.71       75.52       75.33       75.14       74.94       74.74       74.53    
        74.33       74.12       73.91       73.70       73.48       73.26       73.04       72.82       72.60       72.37    
        72.14       71.91       71.68       71.44       71.21       70.97       70.73       70.49       70.24       70.00    
  10  -1000.0       78.47       78.45       78.41       78.36       78.30       78.23       78.14       78.05       77.94    
        77.82       77.69       77.55       77.39       77.24       77.08       76.93       76.77       76.61       76.45    
        76.27       76.10       75.92       75.73       75.54       75.35       75.16       74.96       74.76       74.55    
        74.35       74.14       73.93       73.71       73.50       73.28       73.06       72.83       72.61       72.38    
        72.15       71.92       71.69       71.45       71.21       70.97       70.73       70.49       70.25       70.00    
  11  -1000.0       78.51       78.49       78.46       78.41       78.36       78.28       78.20       78.10       77.99    
        77.87       77.73       77.58       77.42       77.25       77.10       76.95       76.80       76.64       76.48    
        76.31       76.13       75.95       75.76       75.57       75.38       75.18       74.98       74.78       74.57    
        74.36       74.15       73.94       73.73       73.51       73.29       73.07       72.85       72.62       72.39    
        72.16       71.93       71.70       71.46       71.22       70.98       70.74       70.49       70.25       70.00    
  12  -1000.0       78.57       78.55       78.52       78.48       78.42       78.35       78.26       78.16       78.05    
        77.92       77.78       77.62       77.43       77.24       77.11       76.98       76.84       76.68       76.52    
        76.34       76.16       75.98       75.79       75.60       75.40       75.21       75.00       74.80       74.59    
        74.38       74.17       73.96       73.75       73.53       73.31       73.09       72.86       72.64       72.41    
        72.18       71.94       71.71       71.47       71.23       70.99       70.74       70.50       70.25       70.00    
  13  -1000.0       78.63       78.62       78.59       78.54       78.49       78.41       78.33       78.23       78.12    
        77.99       77.84       77.67       77.46       77.15       77.13       77.02       76.88       76.73       76.56    
        76.39       76.20       76.02       75.83       75.63       75.43       75.23       75.03       74.82       74.62    
        74.41       74.20       73.98       73.77       73.55       73.33       73.10       72.88       72.65       72.42    
        72.19       71.96       71.72       71.48       71.24       71.00       70.75       70.50       70.25       70.00    
  14  -1000.0       78.71       78.69       78.66       78.62       78.56       78.49       78.41       78.31       78.19    
        78.06       77.92       77.75       77.56       77.36       77.23       77.10       76.95       76.78       76.61    
        76.43       76.25       76.06       75.87       75.67       75.47       75.26       75.06       74.85       74.64    
        74.43       74.22       74.00       73.79       73.57       73.35       73.12       72.90       72.67       72.44    
        72.21       71.97       71.74       71.50       71.25       71.01       70.76       70.51       70.25       70.00    
  15  -1000.0       78.79       78.77       78.74       78.70       78.64       78.57       78.49       78.39       78.28    
        78.15       78.00       77.85       77.67       77.50       77.34       77.18       77.02       76.85       76.67    
        76.49       76.30       76.11       75.91       75.71       75.50       75.30       75.09       74.88       74.67    
        74.45       74.24       74.03       73.81       73.59       73.37       73.14       72.92       72.69       72.46    
        72.23       71.99       71.75       71.51       71.26       71.02       70.77       70.51       70.26       70.00    
  16  -1000.0       78.88       78.86       78.83       78.79       78.74       78.66       78.58       78.48       78.37    
        78.24       78.10       77.95       77.78       77.61       77.44       77.27       77.10       76.92       76.74    
        76.55       76.35       76.15       75.95       75.75       75.54       75.33       75.12       74.91       74.69    
        74.48       74.27       74.05       73.83       73.61       73.39       73.17       72.94       72.71       72.48    
        72.25       72.01       71.77       71.53       71.28       71.03       70.78       70.52       70.26       70.00    
  17  -1000.0       78.97       78.96       78.93       78.89       78.83       78.76       78.68       78.58       78.47    
        78.34       78.20       78.05       77.89       77.72       77.55       77.37       77.19       77.00       76.81    
        76.61       76.41       76.21       76.00       75.79       75.57       75.36       75.15       74.93       74.72    
        74.51       74.29       74.07       73.86       73.64       73.41       73.19       72.96       72.74       72.50    
        72.27       72.03       71.79       71.55       71.30       71.05       70.79       70.53       70.26       70.00    
  18  -1000.0       79.08       79.07       79.04       79.00       78.94       78.87       78.79       78.69       78.58    
        78.45       78.31       78.16       78.00       77.83       77.65       77.47       77.28       77.08       76.89    
        76.68       76.47       76.26       76.05       75.83       75.61       75.39       75.18       74.96       74.75    
        74.53       74.32       74.10       73.88       73.66       73.44       73.22       72.99       72.76       72.53    
        72.30       72.06       71.82       71.57       71.32       71.06       70.80       70.54       70.27       70.00    
  19  -1000.0       79.19       79.18       79.15       79.11       79.05       78.98       78.90       78.80       78.69    
        78.56       78.43       78.28       78.11       77.94       77.75       77.57       77.37       77.17       76.97    
        76.75       76.54       76.32       76.10       75.87       75.65       75.43       75.21       74.99       74.78    
        74.56       74.34       74.13       73.91       73.69       73.47       73.24       73.02       72.79       72.56    
        72.32       72.09       71.85       71.60       71.35       71.09       70.82       70.55       70.28       70.00    
  20  -1000.0       79.31       79.30       79.27       79.23       79.17       79.10       79.02       78.92       78.81    
        78.68       78.55       78.39       78.23       78.05       77.86       77.67       77.47       77.27       77.05    
        76.83       76.61       76.38       76.15       75.92       75.69       75.46       75.24       75.02       74.80    
        74.59       74.38       74.16       73.94       73.72       73.50       73.27       73.04       72.81       72.59    
        72.36       72.12       71.88       71.63       71.38       71.11       70.84       70.57       70.28       70.00    
  21  -1000.0       79.44       79.43       79.40       79.36       79.30       79.23       79.15       79.05       78.94    
        78.81       78.67       78.52       78.35       78.17       77.98       77.78       77.58       77.37       77.15    
        76.91       76.67       76.44       76.20       75.96       75.73       75.50       75.27       75.05       74.84    
        74.62       74.41       74.20       73.98       73.76       73.54       73.31       73.08       72.84       72.62    
        72.40       72.17       71.92       71.67       71.42       71.15       70.87       70.59       70.29       70.00    
  22  -1000.0       79.58       79.56       79.53       79.49       79.44       79.37       79.28       79.18       79.07    
        78.95       78.80       78.65       78.48       78.30       78.10       77.89       77.68       77.47       77.24    
        76.99       76.74       76.49       76.25       76.00       75.76       75.53       75.31       75.09       74.87    
        74.66       74.45       74.24       74.03       73.81       73.59       73.36       73.12       72.84       72.66    
        72.45       72.22       71.98       71.73       71.47       71.19       70.91       70.61       70.31       70.00    
  23  -1000.0       79.72       79.70       79.68       79.63       79.58       79.51       79.42       79.33       79.21    
        79.09       78.94       78.79       78.62       78.43       78.22       78.01       77.79       77.57       77.33    
        77.08       76.83       76.57       76.31       76.06       75.81       75.58       75.36       75.14       74.93    
        74.72       74.51       74.30       74.09       73.88       73.67       73.44       73.21       72.97       72.76    
        72.53       72.30       72.06       71.81       71.54       71.26       70.97       70.66       70.34       70.00    
  24  -1000.0       79.87       79.85       79.83       79.78       79.73       79.66       79.58       79.48       79.36    
        79.24       79.09       78.93       78.76       78.57       78.36       78.14       77.92       77.68       77.44    
        77.19       76.93       76.67       76.40       76.13       75.88       75.65       75.42       75.21       75.00    
        74.80       74.59       74.39       74.19       73.98       73.77       73.55       73.33       73.10       72.88    
        72.65       72.41       72.17       71.92       71.65       71.37       71.07       70.74       70.39       70.00    
  25  -1000.0       80.03       80.01       79.98       79.94       79.89       79.82       79.73       79.64       79.52    
        79.39       79.25       79.09       78.91       78.72       78.51       78.29       78.06       77.83       77.58    
        77.33       77.07       76.80       76.50       76.21       75.98       75.73       75.51       75.30       75.10    
        74.90       74.71       74.51       74.31       74.12       73.91       73.70       73.48       73.25       73.03    
        72.80       72.56       72.32       72.06       71.79       71.51       71.21       70.88       70.49       70.00    
  26  -1000.0       79.88       79.86       79.84       79.79       79.74       79.67       79.59       79.49       79.37    
        79.25       79.10       78.94       78.76       78.57       78.35       78.14       77.91       77.67       77.43    
        77.18       76.92       76.65       76.38       76.11       75.86       75.63       75.40       75.19       74.98    
        74.77       74.57       74.37       74.17       73.96       73.75       73.54       73.32       73.10       72.87    
        72.64       72.40       72.15       71.90       71.63       71.35       71.05       70.73       70.38       70.00    
  27  -1000.0       79.74       79.72       79.69       79.65       79.60       79.53       79.45       79.35       79.24    
        79.11       78.96       78.80       78.63       78.43       78.22       78.00       77.78       77.54       77.30    
        77.06       76.80       76.55       76.28       76.03       75.78       75.55       75.32       75.10       74.89    
        74.68       74.47       74.27       74.06       73.85       73.64       73.42       73.20       72.98       72.75    
        72.52       72.28       72.03       71.78       71.51       71.23       70.94       70.64       70.32       70.00    
  28  -1000.0       79.60       79.59       79.56       79.52       79.47       79.40       79.31       79.22       79.10    
        78.98       78.84       78.68       78.50       78.31       78.11       77.89       77.67       77.44       77.21    
        76.97       76.72       76.47       76.22       75.97       75.73       75.49       75.26       75.04       74.83    
        74.61       74.40       74.19       73.98       73.77       73.56       73.34       73.12       72.89       72.66    
        72.43       72.19       71.94       71.69       71.43       71.16       70.88       70.59       70.29       70.00    
  29  -1000.0       79.48       79.46       79.44       79.39       79.34       79.27       79.19       79.09       78.98    
        78.86       78.72       78.56       78.39       78.21       78.00       77.80       77.58       77.36       77.13    
        76.90       76.66       76.42       76.18       75.93       75.69       75.46       75.23       75.01       74.79    
        74.58       74.36       74.15       73.94       73.72       73.51       73.29       73.06       72.84       72.61    
        72.37       72.13       71.89       71.64       71.38       71.11       70.84       70.56       70.28       70.00    
  30  -1000.0       79.36       79.34       79.32       79.28       79.22       79.15       79.07       78.98       78.87    
        78.74       78.60       78.45       78.29       78.10       77.91       77.71       77.50       77.28       77.06    
        76.83       76.60       76.37       76.13       75.90       75.66       75.43       75.20       74.98       74.76    
        74.54       74.33       74.11       73.90       73.68       73.46       73.24       73.02       72.79       72.56    
        72.33       72.09       71.85       71.60       71.34       71.08       70.81       70.54       70.27       70.00    
  31  -1000.0       79.25       79.23       79.20       79.16       79.11       79.04       78.96       78.87       78.76    
        78.64       78.50       78.35       78.19       78.01       77.82       77.62       77.42       77.21       76.99    
        76.77       76.55       76.32       76.09       75.86       75.63       75.40       75.17       74.95       74.73    
        74.52       74.30       74.08       73.87       73.65       73.43       73.21       72.98       72.76       72.53    
        72.29       72.05       71.81       71.56       71.31       71.06       70.80       70.53       70.27       70.00    
  32  -1000.0       79.14       79.13       79.10       79.06       79.01       78.94       78.86       78.77       78.66    
        78.54       78.41       78.26       78.10       77.92       77.74       77.54       77.34       77.14       76.93    
        76.72       76.50       76.28       76.05       75.83       75.60       75.37       75.15       74.93       74.71    
        74.49       74.28       74.06       73.84       73.62       73.40       73.18       72.96       72.73       72.50    
        72.26       72.03       71.79       71.54       71.29       71.04       70.78       70.52       70.26       70.00    
  33  -1000.0       79.04       79.03       79.00       78.96       78.91       78.84       78.76       78.67       78.57    
        78.45       78.32       78.17       78.01       77.84       77.66       77.47       77.27       77.07       76.87    
        76.66       76.45       76.23       76.01       75.79       75.57       75.35       75.13       74.91       74.69    
        74.47       74.25       74.04       73.82       73.60       73.38       73.16       72.93       72.70       72.47    
        72.24       72.00       71.76       71.52       71.27       71.02       70.77       70.52       70.26       70.00    
  34  -1000.0       78.95       78.94       78.91       78.87       78.82       78.75       78.67       78.58       78.48    
        78.36       78.23       78.09       77.93       77.77       77.59       77.40       77.21       77.01       76.81    
        76.61       76.40       76.19       75.98       75.76       75.54       75.32       75.10       74.89       74.67    
        74.45       74.24       74.02       73.80       73.58       73.36       73.14       72.91       72.68       72.45    
        72.22       71.99       71.75       71.50       71.26       71.01       70.76       70.51       70.26       70.00    
  35  -1000.0       78.87       78.85       78.83       78.79       78.73       78.67       78.59       78.50       78.40    
        78.28       78.15       78.01       77.86       77.70       77.52       77.34       77.15       76.96       76.76    
        76.56       76.36       76.15       75.94       75.73       75.51       75.30       75.08       74.87       74.65    
        74.43       74.22       74.00       73.78       73.56       73.34       73.12       72.89       72.67       72.44    
        72.20       71.97       71.73       71.49       71.25       71.00       70.75       70.50       70.25       70.00    
  36  -1000.0       78.79       78.77       78.75       78.71       78.66       78.59       78.52       78.43       78.32    
        78.21       78.08       77.95       77.79       77.63       77.46       77.28       77.10       76.91       76.71    
        76.52       76.32       76.11       75.91       75.70       75.49       75.27       75.06       74.85       74.63    
        74.42       74.20       73.98       73.77       73.55       73.32       73.10       72.88       72.65       72.42    
        72.19       71.95       71.72       71.48       71.24       70.99       70.75       70.50       70.25       70.00    
  37  -1000.0       78.72       78.70       78.68       78.64       78.59       78.52       78.44       78.36       78.25    
        78.14       78.02       77.88       77.73       77.57       77.40       77.22       77.04       76.86       76.67    
        76.47       76.28       76.08       75.87       75.67       75.46       75.25       75.04       74.83       74.61    
        74.40       74.18       73.97       73.75       73.53       73.31       73.09       72.86       72.63       72.41    
        72.17       71.94       71.70       71.47       71.23       70.98       70.74       70.50       70.25       70.00    
  38  -1000.0       78.65       78.64       78.61       78.57       78.52       78.46       78.38       78.29       78.19    
        78.08       77.96       77.82       77.68       77.52       77.35       77.17       77.00       76.81       76.63    
        76.44       76.24       76.04       75.84       75.64       75.43       75.23       75.02       74.81       74.60    
        74.38       74.17       73.95       73.73       73.52       73.29       73.07       72.85       72.62       72.39    
        72.16       71.93       71.69       71.46       71.22       70.98       70.74       70.49       70.25       70.00    
  39  -1000.0       78.60       78.58       78.55       78.51       78.46       78.39       78.32       78.23       78.13    
        78.02       77.90       77.77       77.62       77.47       77.30       77.13       76.95       76.77       76.59    
        76.40       76.21       76.01       75.81       75.61       75.41       75.21       75.00       74.79       74.58    
        74.37       74.15       73.94       73.72       73.50       73.28       73.06       72.83       72.61       72.38    
        72.15       71.92       71.68       71.45       71.21       70.97       70.73       70.49       70.24       70.00    
  40  -1000.0       78.55       78.53       78.50       78.46       78.40       78.34       78.26       78.18       78.08    
        77.97       77.85       77.72       77.57       77.42       77.26       77.09       76.91       76.73       76.55    
        76.37       76.18       75.98       75.79       75.59       75.39       75.19       74.98       74.77       74.56    
        74.35       74.14       73.92       73.71       73.49       73.27       73.05       72.82       72.60       72.37    
        72.14       71.91       71.68       71.44       71.20       70.97       70.73       70.49       70.24       70.00    
  41  -1000.0       78.51       78.49       78.45       78.41       78.35       78.29       78.21       78.13       78.03    
        77.92       77.80       77.67       77.53       77.38       77.22       77.05       76.88       76.70       76.52    
        76.34       76.15       75.96       75.76       75.57       75.37       75.17       74.96       74.76       74.55    
        74.34       74.12       73.91       73.69       73.48       73.26       73.04       72.81       72.59       72.36    
        72.13       71.90       71.67       71.43       71.20       70.96       70.72       70.48       70.24       70.00    
  42  -1000.0       78.47       78.45       78.41       78.36       78.31       78.24       78.17       78.08       77.98    
        77.88       77.76       77.63       77.49       77.34       77.18       77.02       76.84       76.67       76.49    
        76.31       76.12       75.94       75.74       75.55       75.35       75.15       74.95       74.74       74.53    
        74.32       74.11       73.90       73.68       73.47       73.25       73.03       72.80       72.58       72.35    
        72.12       71.89       71.66       71.43       71.19       70.96       70.72       70.48       70.24       70.00    
  43  -1000.0       78.44       78.41       78.37       78.32       78.26       78.20       78.12       78.04       77.94    
        77.84       77.72       77.59       77.46       77.31       77.15       76.99       76.82       76.64       76.47    
        76.29       76.10       75.92       75.72       75.53       75.33       75.13       74.93       74.73       74.52    
        74.31       74.10       73.89       73.67       73.46       73.24       73.02       72.80       72.57       72.35    
        72.12       71.89       71.66       71.42       71.19       70.95       70.72       70.48       70.24       70.00    
  44  -1000.0       78.41       78.38       78.34       78.28       78.22       78.16       78.08       78.00       77.90    
        77.80       77.69       77.56       77.43       77.28       77.12       76.96       76.79       76.62       76.45    
        76.27       76.08       75.90       75.71       75.52       75.32       75.12       74.92       74.72       74.51    
        74.30       74.09       73.88       73.67       73.45       73.23       73.01       72.79       72.57       72.34    
        72.11       71.88       71.65       71.42       71.19       70.95       70.72       70.48       70.24       70.00    
  45  -1000.0       78.39       78.35       78.31       78.25       78.18       78.12       78.04       77.96       77.87    
        77.77       77.66       77.53       77.40       77.25       77.10       76.94       76.77       76.60       76.43    
        76.25       76.07       75.88       75.69       75.50       75.31       75.11       74.91       74.71       74.50    
        74.29       74.08       73.87       73.66       73.44       73.22       73.00       72.78       72.56       72.33    
        72.11       71.88       71.65       71.42       71.18       70.95       70.71       70.48       70.24       70.00    
  46  -1000.0     -1000.0       78.32       78.28       78.22       78.16       78.08       78.01       77.93       77.84    
        77.74       77.63       77.51       77.38       77.23       77.08       76.92       76.76       76.59       76.41    
        76.24       76.06       75.87       75.68       75.49       75.30       75.10       74.90       74.70       74.49    
        74.29       74.08       73.87       73.65       73.44       73.22       73.00       72.78       72.56       72.33    
        72.10       71.88       71.65       71.41       71.18       70.95       70.71       70.48       70.24       70.00    
  47  -1000.0     -1000.0     -1000.0       78.24       78.19       78.13       78.06       77.97       77.90       77.81    
        77.72       77.61       77.49       77.36       77.22       77.07       76.91       76.74       76.57       76.40    
        76.23       76.05       75.86       75.67       75.48       75.29       75.09       74.89       74.69       74.49    
        74.28       74.07       73.86       73.65       73.43       73.22       73.00       72.78       72.55       72.33    
        72.10       71.87       71.64       71.41       71.18       70.95       70.71       70.48       70.24       70.00    
  48  -1000.0     -1000.0     -1000.0     -1000.0       78.15       78.10       78.04       77.96       77.87       77.79    
        77.70       77.59       77.48       77.35       77.21       77.06       76.90       76.73       76.57       76.39    
        76.22       76.04       75.86       75.67       75.48       75.29       75.09       74.89       74.69       74.49    
        74.28       74.07       73.86       73.65       73.43       73.21       72.99       72.77       72.55       72.33    
        72.10       71.87       71.64       71.41       71.18       70.95       70.71       70.47       70.24       70.00    
  49  -1000.0     -1000.0     -1000.0     -1000.0     -1000.0       78.07       78.03       77.95       77.86       77.76    
        77.68       77.59       77.47       77.34       77.20       77.05       76.89       76.73       76.56       76.39    
        76.22       76.04       75.85       75.67       75.48       75.28       75.09       74.89       74.69       74.48    
        74.28       74.07       73.86       73.64       73.43       73.21       72.99       72.77       72.55       72.32    
        72.10       71.87       71.64       71.41       71.18       70.95       70.71       70.47       70.24       70.00    
  50  -1000.0     -1000.0     -1000.0     -1000.0     -1000.0     -1000.0     -1000.0     -1000.0     -1000.0     -1000.0    
      -1000.0     -1000.0     -1000.0     -1000.0     -1000.0     -1000.0     -1000.0     -1000.0     -1000.0     -1000.0    
      -1000.0     -1000.0     -1000.0     -1000.0     -1000.0     -1000.0     -1000.0     -1000.0     -1000.0     -1000.0    
      -1000.0     -1000.0     -1000.0     -1000.0     -1000.0     -1000.0     -1000.0     -1000.0     -1000.0     -1000.0    
      -1000.0     -1000.0     -1000.0     -1000.0     -1000.0     -1000.0     -1000.0     -1000.0     -1000.0       70.00    
1
              HEAD IN LAYER   2 AT END OF TIME STEP   1 IN STRESS PERIOD    1
  ---------------------------------------------------------------------------

            1           2           3           4           5           6           7           8           9          10
           11          12          13          14          15          16          17          18          19          20
           21          22          23          24          25          26          27          28          29          30
           31          32          33          34          35          36          37          38          39          40
           41          42          43          44          45          46          47          48          49          50
 ........................................................................................................................
   1  -1000.0     -1000.0     -1000.0     -1000.0     -1000.0     -1000.0     -1000.0     -1000.0     -1000.0     -1000.0    
      -1000.0     -1000.0     -1000.0     -1000.0     -1000.0     -1000.0     -1000.0     -1000.0     -1000.0     -1000.0    
      -1000.0     -1000.0     -1000.0     -1000.0     -1000.0     -1000.0     -1000.0     -1000.0     -1000.0     -1000.0    
      -1000.0     -1000.0     -1000.0     -1000.0     -1000.0     -1000.0     -1000.0     -1000.0     -1000.0     -1000.0    
      -1000.0     -1000.0     -1000.0     -1000.0     -1000.0     -1000.0     -1000.0     -1000.0     -1000.0       70.00    
   2  -1000.0     -1000.0     -1000.0     -1000.0     -1000.0     -1000.0     -1000.0       77.87       77.78       77.68    
        77.60       77.50       77.38       77.26       77.12       76.97       76.81       76.65       76.49       76.33    
        76.16       75.98       75.80       75.62       75.44       75.25       75.06       74.87       74.67       74.47    
        74.27       74.06       73.86       73.65       73.43       73.22       73.00       72.78       72.56       72.33    
        72.11       71.88       71.65       71.42       71.19       70.95       70.72       70.48       70.24       70.00    
   3  -1000.0     -1000.0     -1000.0     -1000.0     -1000.0     -1000.0       77.96       77.88       77.78       77.70    
        77.61       77.51       77.39       77.26       77.12       76.97       76.82       76.66       76.50       76.33    
        76.16       75.98       75.81       75.63       75.44       75.26       75.06       74.87       74.67       74.47    
        74.27       74.07       73.86       73.65       73.43       73.22       73.00       72.78       72.56       72.34    
        72.11       71.88       71.65       71.42       71.19       70.95       70.72       70.48       70.24       70.00    
   4  -1000.0     -1000.0     -1000.0     -1000.0     -1000.0       78.06       77.98       77.89       77.81       77.73    
        77.63       77.52       77.40       77.27       77.13       76.98       76.82       76.66       76.50       76.34    
        76.17       75.99       75.81       75.63       75.45       75.26       75.07       74.88       74.68       74.48    
        74.28       74.07       73.86       73.65       73.44       73.22       73.00       72.78       72.56       72.34    
        72.11       71.88       71.65       71.42       71.19       70.95       70.72       70.48       70.24       70.00    
   5  -1000.0     -1000.0     -1000.0     -1000.0       78.15       78.09       78.00       77.93       77.85       77.75    
        77.65       77.54       77.42       77.29       77.14       76.99       76.83       76.68       76.51       76.35    
        76.17       76.00       75.82       75.64       75.46       75.27       75.08       74.88       74.69       74.49    
        74.28       74.08       73.87       73.66       73.44       73.23       73.01       72.79       72.57       72.34    
        72.12       71.89       71.66       71.42       71.19       70.95       70.72       70.48       70.24       70.00    
   6  -1000.0     -1000.0     -1000.0       78.25       78.19       78.11       78.04       77.97       77.88       77.78    
        77.68       77.56       77.44       77.30       77.16       77.01       76.85       76.69       76.53       76.36    
        76.19       76.01       75.84       75.65       75.47       75.28       75.09       74.89       74.70       74.49    
        74.29       74.08       73.88       73.66       73.45       73.23       73.02       72.80       72.57       72.35    
        72.12       71.89       71.66       71.43       71.19       70.96       70.72       70.48       70.24       70.00    
   7  -1000.0     -1000.0       78.33       78.28       78.22       78.16       78.09       78.01       77.92       77.82    
        77.71       77.59       77.46       77.32       77.18       77.02       76.87       76.71       76.54       76.37    
        76.20       76.03       75.85       75.67       75.48       75.29       75.10       74.91       74.71       74.51    
        74.30       74.09       73.89       73.67       73.46       73.24       73.02       72.80       72.58       72.35    
        72.13       71.90       71.67       71.43       71.20       70.96       70.72       70.48       70.24       70.00    
   8  -1000.0       78.38       78.36       78.32       78.26       78.20       78.13       78.05       77.96       77.86    
        77.74       77.62       77.49       77.35       77.20       77.04       76.88       76.72       76.56       76.39    
        76.22       76.05       75.87       75.69       75.50       75.31       75.12       74.92       74.72       74.52    
        74.31       74.11       73.90       73.68       73.47       73.25       73.03       72.81       72.59       72.36    
        72.13       71.90       71.67       71.44       71.20       70.96       70.72       70.48       70.24       70.00    
   9  -1000.0       78.42       78.40       78.36       78.31       78.25       78.18       78.09       78.00       77.90    
        77.78       77.65       77.52       77.37       77.22       77.06       76.91       76.75       76.58       76.42    
        76.25       76.07       75.89       75.71       75.52       75.33       75.14       74.94       74.74       74.53    
        74.33       74.12       73.91       73.70       73.48       73.26       73.04       72.82       72.60       72.37    
        72.14       71.91       71.68       71.44       71.21       70.97       70.73       70.49       70.24       70.00    
  10  -1000.0       78.47       78.45       78.41       78.36       78.30       78.23       78.14       78.05       77.94    
        77.82       77.69       77.55       77.39       77.24       77.08       76.93       76.77       76.61       76.45    
        76.27       76.10       75.92       75.73       75.54       75.35       75.16       74.96       74.76       74.55    
        74.35       74.14       73.93       73.71       73.50       73.28       73.06       72.83       72.61       72.38    
        72.15       71.92       71.69       71.45       71.21       70.97       70.73       70.49       70.25       70.00    
  11  -1000.0       78.51       78.49       78.46       78.41       78.36       78.28       78.20       78.10       77.99    
        77.87       77.73       77.58       77.42       77.25       77.10       76.95       76.80       76.64       76.48    
        76.31       76.13       75.95       75.76       75.57       75.38       75.18       74.98       74.78       74.57    
        74.36       74.15       73.94       73.73       73.51       73.29       73.07       72.85       72.62       72.39    
        72.16       71.93       71.70       71.46       71.22       70.98       70.74       70.49       70.25       70.00    
  12  -1000.0       78.57       78.55       78.52       78.48       78.42       78.35       78.26       78.16       78.05    
        77.92       77.78       77.62       77.43       77.24       77.11       76.98       76.84       76.68       76.52    
        76.34       76.16       75.98       75.79       75.60       75.40       75.21       75.00       74.80       74.59    
        74.38       74.17       73.96       73.75       73.53       73.31       73.09       72.86       72.64       72.41    
        72.18       71.94       71.71       71.47       71.23       70.99       70.74       70.50       70.25       70.00    
  13  -1000.0       78.63       78.62       78.59       78.54       78.49       78.41       78.33       78.23       78.12    
        77.99       77.84       77.67       77.46       77.15       77.13       77.02       76.88       76.73       76.56    
        76.39       76.20       76.02       75.83       75.63       75.43       75.23       75.03       74.82       74.62    
        74.41       74.20       73.98       73.77       73.55       73.33       73.10       72.88       72.65       72.42    
        72.19       71.96       71.72       71.48       71.24       71.00       70.75       70.50       70.25       70.00    
  14  -1000.0       78.71       78.69       78.66       78.62       78.56       78.49       78.41       78.31       78.19    
        78.06       77.92       77.75       77.56       77.36       77.23       77.10       76.95       76.78       76.61    
        76.43       76.25       76.06       75.87       75.67       75.47       75.26       75.06       74.85       74.64    
        74.43       74.22       74.00       73.79       73.57       73.35       73.12       72.90       72.67       72.44    
        72.21       71.97       71.74       71.50       71.25       71.01       70.76       70.51       70.25       70.00    
  15  -1000.0       78.79       78.77       78.74       78.70       78.64       78.57       78.49       78.39       78.28    
        78.15       78.00       77.85       77.67       77.50       77.34       77.18       77.02       76.85       76.67    
        76.49       76.30       76.11       75.91       75.71       75.50       75.30       75.09       74.88       74.67    
        74.45       74.24       74.03       73.81       73.59       73.37       73.14       72.92       72.69       72.46    
        72.23       71.99       71.75       71.51       71.26       71.02       70.77       70.51       70.26       70.00    
  16  -1000.0       78.88       78.86       78.83       78.79       78.74       78.66       78.58       78.48       78.37    
        78.24       78.10       77.95       77.78       77.61       77.44       77.27       77.10       76.92       76.74    
        76.55       76.35       76.15       75.95       75.75       75.54       75.33       75.12       74.91       74.69    
        74.48       74.27       74.05       73.83       73.61       73.39       73.17       72.94       72.71       72.48    
        72.25       72.01       71.77       71.53       71.28       71.03       70.78       70.52       70.26       70.00    
  17  -1000.0       78.97       78.96       78.93       78.89       78.83       78.76       78.68       78.58       78.47    
        78.34       78.20       78.05       77.89       77.72       77.55       77.37       77.19       77.00       76.81    
        76.61       76.41       76.21       76.00       75.79       75.57       75.36       75.15       74.93       74.72    
        74.51       74.29       74.07       73.86       73.64       73.41       73.19       72.96       72.74       72.50    
        72.27       72.03       71.79       71.55       71.30       71.05       70.79       70.53       70.26       70.00    
  18  -1000.0       79.08       79.07       79.04       79.00       78.94       78.87       78.79       78.69       78.58    
        78.45       78.31       78.16       78.00       77.83       77.65       77.47       77.28       77.08       76.89    
        76.68       76.47       76.26       76.05       75.83       75.61       75.39       75.18       74.96       74.75    
        74.53       74.32       74.10       73.88       73.66       73.44       73.22       72.99       72.76       72.53    
        72.30       72.06       71.82       71.57       71.32       71.06       70.80       70.54       70.27       70.00    
  19  -1000.0       79.19       79.18       79.15       79.11       79.05       78.98       78.90       78.80       78.69    
        78.56       78.43       78.28       78.11       77.94       77.75       77.57       77.37       77.17       76.97    
        76.75       76.54       76.32       76.10       75.87       75.65       75.43       75.21       74.99       74.78    
        74.56       74.34       74.13       73.91       73.69       73.47       73.24       73.02       72.79       72.56    
        72.32       72.09       71.85       71.60       71.35       71.09       70.82       70.55       70.28       70.00    
  20  -1000.0       79.31       79.30       79.27       79.23       79.17       79.10       79.02       78.92       78.81    
        78.68       78.55       78.39       78.23       78.05       77.86       77.67       77.47       77.27       77.05    
        76.83       76.61       76.38       76.15       75.92       75.69       75.46       75.24       75.02       74.80    
        74.59       74.38       74.16       73.94       73.72       73.50       73.27       73.04       72.81       72.59    
        72.36       72.12       71.88       71.63       71.38       71.11       70.84       70.57       70.28       70.00    
  21  -1000.0       79.44       79.43       79.40       79.36       79.30       79.23       79.15       79.05       78.94    
        78.81       78.67       78.52       78.35       78.17       77.98       77.78       77.58       77.37       77.15    
        76.91       76.67       76.44       76.20       75.96       75.73       75.50       75.27       75.05       74.84    
        74.62       74.41       74.20       73.98       73.76       73.54       73.31       73.08       72.84       72.62    
        72.40       72.17       71.92       71.67       71.42       71.15       70.87       70.59       70.29       70.00    
  22  -1000.0       79.58       79.56       79.53       79.49       79.44       79.37       79.28       79.18       79.07    
        78.95       78.80       78.65       78.48       78.30       78.10       77.89       77.68       77.47       77.24    
        76.99       76.74       76.49       76.25       76.00       75.76       75.53       75.31       75.09       74.87    
        74.66       74.45       74.24       74.03       73.81       73.59       73.36       73.12       72.84       72.66    
        72.45       72.22       71.98       71.73       71.47       71.19       70.91       70.61       70.31       70.00    
  23  -1000.0       79.72       79.70       79.68       79.63       79.58       79.51       79.42       79.33       79.21    
        79.09       78.94       78.79       78.62       78.43       78.22       78.01       77.79       77.57       77.33    
        77.08       76.83       76.57       76.31       76.06       75.81       75.58       75.36       75.14       74.93    
        74.72       74.51       74.30       74.09       73.88       73.67       73.44       73.21       72.97       72.76    
        72.53       72.30       72.06       71.81       71.54       71.26       70.97       70.66       70.34       70.00    
  24  -1000.0       79.87       79.85       79.83       79.78       79.73       79.66       79.58       79.48       79.36    
        79.24       79.09       78.93       78.76       78.57       78.36       78.14       77.92       77.68       77.44    
        77.19       76.93       76.67       76.40       76.13       75.88       75.65       75.42       75.21       75.00    
        74.80       74.59       74.39       74.19       73.98       73.77       73.55       73.33       73.10       72.88    
        72.65       72.41       72.17       71.92       71.65       71.37       71.07       70.74       70.39       70.00    
  25  -1000.0       80.02       80.01       79.98       79.94       79.89       79.82       79.73       79.64       79.52    
        79.39       79.25       79.09       78.91       78.72       78.51       78.29       78.06       77.83       77.58    
        77.33       77.07       76.80       76.50       76.21       75.97       75.73       75.51       75.30       75.10    
        74.90       74.71       74.51       74.31       74.12       73.91       73.70       73.48       73.25       73.03    
        72.80       72.56       72.31       72.06       71.79       71.51       71.21       70.88       70.49       70.00    
  26  -1000.0       79.88       79.86       79.84       79.79       79.74       79.67       79.59       79.49       79.37    
        79.25       79.10       78.94       78.76       78.57       78.35       78.14       77.91       77.67       77.43    
        77.18       76.92       76.65       76.38       76.11       75.86       75.63       75.40       75.19       74.98    
        74.77       74.57       74.37       74.17       73.96       73.75       73.54       73.32       73.10       72.87    
        72.64       72.40       72.15       71.90       71.63       71.35       71.05       70.73       70.38       70.00    
  27  -1000.0       79.74       79.72       79.69       79.65       79.60       79.53       79.45       79.35       79.24    
        79.11       78.96       78.80       78.63       78.43       78.22       78.00       77.78       77.54       77.30    
        77.06       76.80       76.55       76.28       76.03       75.78       75.55       75.32       75.10       74.89    
        74.68       74.47       74.27       74.06       73.85       73.64       73.42       73.20       72.98       72.75    
        72.52       72.28       72.03       71.78       71.51       71.23       70.94       70.64       70.32       70.00    
  28  -1000.0       79.60       79.59       79.56       79.52       79.47       79.40       79.31       79.22       79.10    
        78.98       78.84       78.68       78.50       78.31       78.11       77.89       77.67       77.44       77.21    
        76.97       76.72       76.47       76.22       75.97       75.73       75.49       75.26       75.04       74.83    
        74.61       74.40       74.19       73.98       73.77       73.56       73.34       73.12       72.89       72.66    
        72.43       72.19       71.94       71.69       71.43       71.16       70.88       70.59       70.29       70.00    
  29  -1000.0       79.48       79.46       79.44       79.39       79.34       79.27       79.19       79.09       78.98    
        78.86       78.72       78.56       78.39       78.21       78.00       77.80       77.58       77.36       77.13    
        76.90       76.66       76.42       76.18       75.93       75.69       75.46       75.23       75.01       74.79    
        74.58       74.36       74.15       73.94       73.72       73.51       73.29       73.06       72.84       72.61    
        72.37       72.13       71.89       71.64       71.38       71.11       70.84       70.56       70.28       70.00    
  30  -1000.0       79.36       79.34       79.32       79.28       79.22       79.15       79.07       78.98       78.87    
        78.74       78.60       78.45       78.29       78.10       77.91       77.71       77.50       77.28       77.06    
        76.83       76.60       76.37       76.13       75.90       75.66       75.43       75.20       74.98       74.76    
        74.54       74.33       74.11       73.90       73.68       73.46       73.24       73.02       72.79       72.56    
        72.33       72.09       71.85       71.60       71.34       71.08       70.81       70.54       70.27       70.00    
  31  -1000.0       79.25       79.23       79.20       79.16       79.11       79.04       78.96       78.87       78.76    
        78.64       78.50       78.35       78.19       78.01       77.82       77.62       77.42       77.21       76.99    
        76.77       76.55       76.32       76.09       75.86       75.63       75.40       75.17       74.95       74.73    
        74.52       74.30       74.08       73.87       73.65       73.43       73.21       72.98       72.76       72.53    
        72.29       72.05       71.81       71.56       71.31       71.06       70.80       70.53       70.27       70.00    
  32  -1000.0       79.14       79.13       79.10       79.06       79.01       78.94       78.86       78.77       78.66    
        78.54       78.41       78.26       78.10       77.92       77.74       77.54       77.34       77.14       76.93    
        76.72       76.50       76.28       76.05       75.83       75.60       75.37       75.15       74.93       74.71    
        74.49       74.28       74.06       73.84       73.62       73.40       73.18       72.96       72.73       72.50    
        72.26       72.03       71.79       71.54       71.29       71.04       70.78       70.52       70.26       70.00    
  33  -1000.0       79.04       79.03       79.00       78.96       78.91       78.84       78.76       78.67       78.57    
        78.45       78.32       78.17       78.01       77.84       77.66       77.47       77.27       77.07       76.87    
        76.66       76.45       76.23       76.01       75.79       75.57       75.35       75.13       74.91       74.69    
        74.47       74.25       74.04       73.82       73.60       73.38       73.16       72.93       72.70       72.47    
        72.24       72.00       71.76       71.52       71.27       71.02       70.77       70.52       70.26       70.00    
  34  -1000.0       78.95       78.94       78.91       78.87       78.82       78.75       78.67       78.58       78.48    
        78.36       78.23       78.09       77.93       77.77       77.59       77.40       77.21       77.01       76.81    
        76.61       76.40       76.19       75.98       75.76       75.54       75.32       75.10       74.89       74.67    
        74.45       74.24       74.02       73.80       73.58       73.36       73.14       72.91       72.68       72.45    
        72.22       71.99       71.75       71.50       71.26       71.01       70.76       70.51       70.26       70.00    
  35  -1000.0       78.87       78.85       78.83       78.79       78.73       78.67       78.59       78.50       78.40    
        78.28       78.15       78.01       77.86       77.70       77.52       77.34       77.15       76.96       76.76    
        76.56       76.36       76.15       75.94       75.73       75.51       75.30       75.08       74.87       74.65    
        74.43       74.22       74.00       73.78       73.56       73.34       73.12       72.89       72.67       72.44    
        72.20       71.97       71.73       71.49       71.25       71.00       70.75       70.50       70.25       70.00    
  36  -1000.0       78.79       78.77       78.75       78.71       78.66       78.59       78.52       78.43       78.32    
        78.21       78.08       77.95       77.79       77.63       77.46       77.28       77.10       76.91       76.71    
        76.52       76.32       76.11       75.91       75.70       75.49       75.27       75.06       74.85       74.63    
        74.42       74.20       73.98       73.77       73.55       73.32       73.10       72.88       72.65       72.42    
        72.19       71.95       71.72       71.48       71.24       70.99       70.75       70.50       70.25       70.00    
  37  -1000.0       78.72       78.70       78.68       78.64       78.59       78.52       78.44       78.36       78.25    
        78.14       78.02       77.88       77.73       77.57       77.40       77.22       77.04       76.86       76.67    
        76.47       76.28       76.08       75.87       75.67       75.46       75.25       75.04       74.83       74.61    
        74.40       74.18       73.97       73.75       73.53       73.31       73.09       72.86       72.63       72.41    
        72.17       71.94       71.70       71.47       71.23       70.98       70.74       70.50       70.25       70.00    
  38  -1000.0       78.65       78.64       78.61       78.57       78.52       78.46       78.38       78.29       78.19    
        78.08       77.96       77.82       77.68       77.52       77.35       77.17       77.00       76.81       76.63    
        76.44       76.24       76.04       75.84       75.64       75.43       75.23       75.02       74.81       74.60    
        74.38       74.17       73.95       73.73       73.52       73.29       73.07       72.85       72.62       72.39    
        72.16       71.93       71.69       71.46       71.22       70.98       70.74       70.49       70.25       70.00    
  39  -1000.0       78.60       78.58       78.55       78.51       78.46       78.39       78.32       78.23       78.13    
        78.02       77.90       77.77       77.62       77.47       77.30       77.13       76.95       76.77       76.59    
        76.40       76.21       76.01       75.81       75.61       75.41       75.21       75.00       74.79       74.58    
        74.37       74.15       73.94       73.72       73.50       73.28       73.06       72.83       72.61       72.38    
        72.15       71.92       71.68       71.45       71.21       70.97       70.73       70.49       70.24       70.00    
  40  -1000.0       78.55       78.53       78.50       78.46       78.40       78.34       78.26       78.18       78.08    
        77.97       77.85       77.72       77.57       77.42       77.26       77.09       76.91       76.73       76.55    
        76.37       76.18       75.98       75.79       75.59       75.39       75.19       74.98       74.77       74.56    
        74.35       74.14       73.92       73.71       73.49       73.27       73.05       72.82       72.60       72.37    
        72.14       71.91       71.68       71.44       71.20       70.97       70.73       70.49       70.24       70.00    
  41  -1000.0       78.51       78.49       78.45       78.41       78.35       78.29       78.21       78.13       78.03    
        77.92       77.80       77.67       77.53       77.38       77.22       77.05       76.88       76.70       76.52    
        76.34       76.15       75.96       75.76       75.57       75.37       75.17       74.96       74.76       74.55    
        74.34       74.12       73.91       73.69       73.48       73.26       73.04       72.81       72.59       72.36    
        72.13       71.90       71.67       71.43       71.20       70.96       70.72       70.48       70.24       70.00    
  42  -1000.0       78.47       78.45       78.41       78.36       78.31       78.24       78.17       78.08       77.98    
        77.88       77.76       77.63       77.49       77.34       77.18       77.02       76.84       76.67       76.49    
        76.31       76.12       75.94       75.74       75.55       75.35       75.15       74.95       74.74       74.53    
        74.32       74.11       73.90       73.68       73.47       73.25       73.03       72.80       72.58       72.35    
        72.12       71.89       71.66       71.43       71.19       70.96       70.72       70.48       70.24       70.00    
  43  -1000.0       78.44       78.41       78.37       78.32       78.26       78.20       78.12       78.04       77.94    
        77.84       77.72       77.59       77.46       77.31       77.15       76.99       76.82       76.64       76.47    
        76.29       76.10       75.92       75.72       75.53       75.33       75.13       74.93       74.73       74.52    
        74.31       74.10       73.89       73.67       73.46       73.24       73.02       72.80       72.57       72.35    
        72.12       71.89       71.66       71.42       71.19       70.95       70.72       70.48       70.24       70.00    
  44  -1000.0     -1000.0       78.38       78.34       78.28       78.22       78.16       78.08       78.00       77.90    
        77.80       77.69       77.56       77.43       77.28       77.12       76.96       76.79       76.62       76.45    
        76.27       76.08       75.90       75.71       75.52       75.32       75.12       74.92       74.72       74.51    
        74.30       74.09       73.88       73.67       73.45       73.23       73.01       72.79       72.57       72.34    
        72.11       71.88       71.65       71.42       71.19       70.95       70.72       70.48       70.24       70.00    
  45  -1000.0     -1000.0     -1000.0       78.31       78.25       78.18       78.12       78.04       77.96       77.87    
        77.77       77.66       77.53       77.40       77.25       77.10       76.94       76.77       76.60       76.43    
        76.25       76.07       75.88       75.69       75.50       75.31       75.11       74.91       74.71       74.50    
        74.29       74.08       73.87       73.66       73.44       73.22       73.00       72.78       72.56       72.33    
        72.11       71.88       71.65       71.42       71.18       70.95       70.71       70.48       70.24       70.00    
  46  -1000.0     -1000.0     -1000.0     -1000.0       78.22       78.16       78.08       78.01       77.93       77.84    
        77.74       77.63       77.51       77.38       77.23       77.08       76.92       76.76       76.59       76.41    
        76.24       76.06       75.87       75.68       75.49       75.30       75.10       74.90       74.70       74.49    
        74.29       74.08       73.87       73.65       73.44       73.22       73.00       72.78       72.56       72.33    
        72.10       71.88       71.65       71.41       71.18       70.95       70.71       70.48       70.24       70.00    
  47  -1000.0     -1000.0     -1000.0     -1000.0     -1000.0       78.13       78.06       77.97       77.90       77.81    
        77.72       77.61       77.49       77.36       77.22       77.07       76.91       76.74       76.57       76.40    
        76.23       76.05       75.86       75.67       75.48       75.29       75.09       74.89       74.69       74.49    
        74.28       74.07       73.86       73.65       73.43       73.22       73.00       72.78       72.55       72.33    
        72.10       71.87       71.64       71.41       71.18       70.95       70.71       70.48       70.24       70.00    
  48  -1000.0     -1000.0     -1000.0     -1000.0     -1000.0     -1000.0       78.04       77.96       77.87       77.79    
        77.70       77.59       77.48       77.35       77.21       77.06       76.90       76.73       76.57       76.39    
        76.22       76.04       75.86       75.67       75.48       75.29       75.09       74.89       74.69       74.49    
        74.28       74.07       73.86       73.65       73.43       73.21       72.99       72.77       72.55       72.33    
        72.10       71.87       71.64       71.41       71.18       70.95       70.71       70.47       70.24       70.00    
  49  -1000.0     -1000.0     -1000.0     -1000.0     -1000.0     -1000.0     -1000.0       77.95       77.86       77.76    
        77.68       77.59       77.47       77.34       77.20       77.05       76.89       76.73       76.56       76.39    
        76.22       76.04       75.85       75.67       75.48       75.28       75.09       74.89       74.69       74.48    
        74.28       74.07       73.86       73.64       73.43       73.21       72.99       72.77       72.55       72.32    
        72.10       71.87       71.64       71.41       71.18       70.95       70.71       70.47       70.24       70.00    
  50  -1000.0     -1000.0     -1000.0     -1000.0     -1000.0     -1000.0     -1000.0     -1000.0     -1000.0     -1000.0    
      -1000.0     -1000.0     -1000.0     -1000.0     -1000.0     -1000.0     -1000.0     -1000.0     -1000.0     -1000.0    
      -1000.0     -1000.0     -1000.0     -1000.0     -1000.0     -1000.0     -1000.0     -1000.0     -1000.0     -1000.0    
      -1000.0     -1000.0     -1000.0     -1000.0     -1000.0     -1000.0     -1000.0     -1000.0     -1000.0     -1000.0    
      -1000.0     -1000.0     -1000.0     -1000.0     -1000.0     -1000.0     -1000.0     -1000.0     -1000.0       70.00    
1
              HEAD IN LAYER   3 AT END OF TIME STEP   1 IN STRESS PERIOD    1
  ---------------------------------------------------------------------------

            1           2           3           4           5           6           7           8           9          10
           11          12          13          14          15          16          17          18          19          20
           21          22          23          24          25          26          27          28          29          30
           31          32          33          34          35          36          37          38          39          40
[...]
        77.08       76.83       76.57       76.31       76.06       75.81       75.58       75.36       75.14       74.93    
        74.72       74.51       74.30       74.09       73.88       73.67       73.44       73.21       72.97       72.76    
        72.53       72.30       72.06       71.81       71.54       71.26       70.97       70.66       70.34       70.00    
  24  -1000.0       79.87       79.85       79.83       79.78       79.73       79.66       79.58       79.48       79.36    
        79.24       79.09       78.93       78.76       78.57       78.36       78.14       77.92       77.68       77.44    
        77.19       76.93       76.67       76.40       76.13       75.88       75.65       75.42       75.21       75.00    
        74.80       74.59       74.39       74.19       73.98       73.77       73.55       73.33       73.10       72.88    
        72.65       72.41       72.17       71.92       71.65       71.37       71.07       70.74       70.39       70.00    
  25  -1000.0       80.02       80.01       79.98       79.94       79.89       79.82       79.73       79.63       79.52    
        79.39       79.25       79.09       78.91       78.72       78.51       78.29       78.06       77.83       77.58    
        77.33       77.07       76.80       76.50       76.21       75.97       75.73       75.51       75.30       75.10    
        74.90       74.71       74.51       74.31       74.11       73.91       73.70       73.48       73.25       73.03    
        72.80       72.56       72.31       72.06       71.79       71.51       71.21       70.88       70.49       70.00    
  26  -1000.0       79.88       79.86       79.84       79.79       79.74       79.67       79.59       79.49       79.37    
        79.25       79.10       78.94       78.76       78.57       78.35       78.14       77.91       77.67       77.43    
        77.18       76.92       76.65       76.38       76.11       75.86       75.63       75.40       75.19       74.98    
        74.77       74.57       74.37       74.17       73.96       73.75       73.54       73.32       73.10       72.87    
        72.64       72.40       72.15       71.90       71.63       71.35       71.05       70.73       70.38       70.00    
  27  -1000.0       79.74       79.72       79.69       79.65       79.60       79.53       79.45       79.35       79.23    
        79.11       78.96       78.80       78.63       78.43       78.22       78.00       77.78       77.54       77.30    
        77.06       76.80       76.55       76.28       76.03       75.78       75.55       75.32       75.10       74.89    
        74.68       74.47       74.27       74.06       73.85       73.64       73.42       73.20       72.98       72.75    
        72.52       72.28       72.03       71.78       71.51       71.23       70.94       70.64       70.32       70.00    
  28  -1000.0       79.60       79.59       79.56       79.52       79.47       79.40       79.31       79.22       79.10    
        78.98       78.84       78.68       78.50       78.31       78.11       77.89       77.67       77.44       77.21    
        76.97       76.72       76.47       76.22       75.97       75.73       75.49       75.26       75.04       74.83    
        74.61       74.40       74.19       73.98       73.77       73.56       73.34       73.12       72.89       72.66    
        72.43       72.19       71.94       71.69       71.43       71.16       70.88       70.59       70.29       70.00    
  29  -1000.0       79.48       79.46       79.44       79.39       79.34       79.27       79.19       79.09       78.98    
        78.86       78.72       78.56       78.39       78.21       78.00       77.80       77.58       77.36       77.13    
        76.90       76.66       76.42       76.18       75.93       75.69       75.46       75.23       75.01       74.79    
        74.58       74.36       74.15       73.94       73.72       73.51       73.29       73.06       72.84       72.61    
        72.37       72.13       71.89       71.64       71.38       71.11       70.84       70.56       70.28       70.00    
  30  -1000.0       79.36       79.34       79.32       79.28       79.22       79.15       79.07       78.98       78.87    
        78.74       78.60       78.45       78.29       78.10       77.91       77.71       77.50       77.28       77.06    
        76.83       76.60       76.37       76.13       75.90       75.66       75.43       75.20       74.98       74.76    
        74.54       74.33       74.11       73.90       73.68       73.46       73.24       73.02       72.79       72.56    
        72.33       72.09       71.85       71.60       71.34       71.08       70.81       70.54       70.27       70.00    
  31  -1000.0       79.25       79.23       79.20       79.16       79.11       79.04       78.96       78.87       78.76    
        78.64       78.50       78.35       78.19       78.01       77.82       77.62       77.42       77.21       76.99    
        76.77       76.55       76.32       76.09       75.86       75.63       75.40       75.17       74.95       74.73    
        74.52       74.30       74.08       73.87       73.65       73.43       73.21       72.98       72.76       72.53    
        72.29       72.05       71.81       71.56       71.31       71.06       70.80       70.53       70.27       70.00    
  32  -1000.0       79.14       79.13       79.10       79.06       79.01       78.94       78.86       78.77       78.66    
        78.54       78.41       78.26       78.10       77.92       77.74       77.54       77.34       77.14       76.93    
        76.72       76.50       76.28       76.05       75.83       75.60       75.37       75.15       74.93       74.71    
        74.49       74.28       74.06       73.84       73.62       73.40       73.18       72.96       72.73       72.50    
        72.26       72.03       71.79       71.54       71.29       71.04       70.78       70.52       70.26       70.00    
  33  -1000.0       79.04       79.03       79.00       78.96       78.91       78.84       78.76       78.67       78.57    
        78.45       78.32       78.17       78.01       77.84       77.66       77.47       77.27       77.07       76.87    
        76.66       76.45       76.23       76.01       75.79       75.57       75.35       75.13       74.91       74.69    
        74.47       74.25       74.04       73.82       73.60       73.38       73.16       72.93       72.70       72.47    
        72.24       72.00       71.76       71.52       71.27       71.02       70.77       70.52       70.26       70.00    
  34  -1000.0       78.95       78.94       78.91       78.87       78.82       78.75       78.67       78.58       78.48    
        78.36       78.23       78.09       77.93       77.77       77.59       77.40       77.21       77.01       76.81    
        76.61       76.40       76.19       75.98       75.76       75.54       75.32       75.10       74.89       74.67    
        74.45       74.24       74.02       73.80       73.58       73.36       73.14       72.91       72.68       72.45    
        72.22       71.99       71.75       71.50       71.26       71.01       70.76       70.51       70.26       70.00    
  35  -1000.0       78.87       78.85       78.83       78.79       78.73       78.67       78.59       78.50       78.40    
        78.28       78.15       78.01       77.86       77.70       77.52       77.34       77.15       76.96       76.76    
        76.56       76.36       76.15       75.94       75.73       75.51       75.30       75.08       74.87       74.65    
        74.43       74.22       74.00       73.78       73.56       73.34       73.12       72.89       72.67       72.44    
        72.20       71.97       71.73       71.49       71.25       71.00       70.75       70.50       70.25       70.00    
  36  -1000.0       78.79       78.77       78.75       78.71       78.66       78.59       78.52       78.43       78.32    
        78.21       78.08       77.95       77.79       77.63       77.46       77.28       77.10       76.91       76.71    
        76.52       76.32       76.11       75.91       75.70       75.49       75.27       75.06       74.85       74.63    
        74.42       74.20       73.98       73.77       73.55       73.32       73.10       72.88       72.65       72.42    
        72.19       71.95       71.72       71.48       71.24       70.99       70.75       70.50       70.25       70.00    
  37  -1000.0       78.72       78.70       78.68       78.64       78.59       78.52       78.44       78.36       78.25    
        78.14       78.02       77.88       77.73       77.57       77.40       77.22       77.04       76.86       76.67    
        76.47       76.28       76.08       75.87       75.67       75.46       75.25       75.04       74.83       74.61    
        74.40       74.18       73.97       73.75       73.53       73.31       73.09       72.86       72.63       72.41    
        72.17       71.94       71.70       71.47       71.23       70.98       70.74       70.50       70.25       70.00    
  38  -1000.0       78.65       78.64       78.61       78.57       78.52       78.46       78.38       78.29       78.19    
        78.08       77.96       77.82       77.68       77.52       77.35       77.17       77.00       76.81       76.63    
        76.44       76.24       76.04       75.84       75.64       75.43       75.23       75.02       74.81       74.60    
        74.38       74.17       73.95       73.73       73.52       73.29       73.07       72.85       72.62       72.39    
        72.16       71.93       71.69       71.46       71.22       70.98       70.74       70.49       70.25       70.00    
  39  -1000.0       78.60       78.58       78.55       78.51       78.46       78.39       78.32       78.23       78.13    
        78.02       77.90       77.77       77.62       77.47       77.30       77.13       76.95       76.77       76.59    
        76.40       76.21       76.01       75.81       75.61       75.41       75.21       75.00       74.79       74.58    
        74.37       74.15       73.94       73.72       73.50       73.28       73.06       72.83       72.61       72.38    
        72.15       71.92       71.68       71.45       71.21       70.97       70.73       70.49       70.24       70.00    
  40  -1000.0       78.55       78.53       78.50       78.46       78.40       78.34       78.26       78.18       78.08    
        77.97       77.85       77.72       77.57       77.42       77.26       77.09       76.91       76.73       76.55    
        76.37       76.18       75.98       75.79       75.59       75.39       75.19       74.98       74.77       74.56    
        74.35       74.14       73.92       73.71       73.49       73.27       73.05       72.82       72.60       72.37    
        72.14       71.91       71.68       71.44       71.20       70.97       70.73       70.49       70.24       70.00    
  41  -1000.0       78.51       78.49       78.45       78.41       78.35       78.29       78.21       78.13       78.03    
        77.92       77.80       77.67       77.53       77.38       77.22       77.05       76.88       76.70       76.52    
        76.34       76.15       75.96       75.76       75.57       75.37       75.17       74.96       74.76       74.55    
        74.34       74.12       73.91       73.69       73.48       73.26       73.04       72.81       72.59       72.36    
        72.13       71.90       71.67       71.43       71.20       70.96       70.72       70.48       70.24       70.00    
  42  -1000.0     -1000.0       78.45       78.41       78.36       78.31       78.24       78.17       78.08       77.98    
        77.88       77.76       77.63       77.49       77.34       77.18       77.02       76.84       76.67       76.49    
        76.31       76.12       75.94       75.74       75.55       75.35       75.15       74.95       74.74       74.53    
        74.32       74.11       73.90       73.68       73.47       73.25       73.03       72.80       72.58       72.35    
        72.12       71.89       71.66       71.43       71.19       70.96       70.72       70.48       70.24       70.00    
  43  -1000.0     -1000.0     -1000.0       78.37       78.32       78.26       78.20       78.12       78.04       77.94    
        77.84       77.72       77.59       77.46       77.31       77.15       76.99       76.82       76.64       76.47    
        76.29       76.10       75.92       75.72       75.53       75.33       75.13       74.93       74.73       74.52    
        74.31       74.10       73.89       73.67       73.46       73.24       73.02       72.80       72.57       72.35    
        72.12       71.89       71.66       71.42       71.19       70.95       70.72       70.48       70.24       70.00    
  44  -1000.0     -1000.0     -1000.0     -1000.0       78.28       78.22       78.16       78.08       78.00       77.90    
        77.80       77.69       77.56       77.43       77.28       77.12       76.96       76.79       76.62       76.45    
        76.27       76.08       75.90       75.71       75.52       75.32       75.12       74.92       74.72       74.51    
        74.30       74.09       73.88       73.67       73.45       73.23       73.01       72.79       72.57       72.34    
        72.11       71.88       71.65       71.42       71.19       70.95       70.72       70.48       70.24       70.00    
  45  -1000.0     -1000.0     -1000.0     -1000.0     -1000.0       78.18       78.12       78.04       77.96       77.87    
        77.77       77.66       77.53       77.40       77.25       77.10       76.94       76.77       76.60       76.43    
        76.25       76.07       75.88       75.69       75.50       75.31       75.11       74.91       74.71       74.50    
        74.29       74.08       73.87       73.66       73.44       73.22       73.00       72.78       72.56       72.33    
        72.11       71.88       71.65       71.42       71.18       70.95       70.71       70.48       70.24       70.00    
  46  -1000.0     -1000.0     -1000.0     -1000.0     -1000.0     -1000.0       78.08       78.01       77.93       77.84    
        77.74       77.63       77.51       77.38       77.23       77.08       76.92       76.76       76.59       76.41    
        76.24       76.06       75.87       75.68       75.49       75.30       75.10       74.90       74.70       74.49    
        74.29       74.08       73.87       73.65       73.44       73.22       73.00       72.78       72.56       72.33    
        72.10       71.88       71.65       71.41       71.18       70.95       70.71       70.48       70.24       70.00    
  47  -1000.0     -1000.0     -1000.0     -1000.0     -1000.0     -1000.0     -1000.0       77.97       77.90       77.81    
        77.72       77.61       77.49       77.36       77.22       77.07       76.91       76.74       76.57       76.40    
        76.23       76.05       75.86       75.67       75.48       75.29       75.09       74.89       74.69       74.49    
        74.28       74.07       73.86       73.65       73.43       73.22       73.00       72.78       72.55       72.33    
        72.10       71.87       71.64       71.41       71.18       70.95       70.71       70.48       70.24       70.00    
  48  -1000.0     -1000.0     -1000.0     -1000.0     -1000.0     -1000.0     -1000.0     -1000.0       77.87       77.79    
        77.70       77.59       77.48       77.35       77.21       77.06       76.90       76.73       76.57       76.39    
        76.22       76.04       75.86       75.67       75.48       75.29       75.09       74.89       74.69       74.49    
        74.28       74.07       73.86       73.65       73.43       73.21       72.99       72.77       72.55       72.33    
        72.10       71.87       71.64       71.41       71.18       70.95       70.71       70.47       70.24       70.00    
  49  -1000.0     -1000.0     -1000.0     -1000.0     -1000.0     -1000.0     -1000.0     -1000.0     -1000.0       77.76    
        77.68       77.59       77.47       77.34       77.20       77.05       76.89       76.73       76.56       76.39    
        76.22       76.04       75.85       75.67       75.48       75.28       75.09       74.89       74.69       74.48    
        74.28       74.07       73.86       73.64       73.43       73.21       72.99       72.77       72.55       72.32    
        72.10       71.87       71.64       71.41       71.18       70.95       70.71       70.47       70.24       70.00    
  50  -1000.0     -1000.0     -1000.0     -1000.0     -1000.0     -1000.0     -1000.0     -1000.0     -1000.0     -1000.0    
      -1000.0     -1000.0     -1000.0     -1000.0     -1000.0     -1000.0     -1000.0     -1000.0     -1000.0     -1000.0    
      -1000.0     -1000.0     -1000.0     -1000.0     -1000.0     -1000.0     -1000.0     -1000.0     -1000.0     -1000.0    
      -1000.0     -1000.0     -1000.0     -1000.0     -1000.0     -1000.0     -1000.0     -1000.0     -1000.0     -1000.0    
      -1000.0     -1000.0     -1000.0     -1000.0     -1000.0     -1000.0     -1000.0     -1000.0     -1000.0       70.00    

 HEAD WILL BE SAVED ON UNIT   51 AT END OF TIME STEP    1, STRESS PERIOD    1

 DRAWDOWN WILL BE SAVED ON UNIT   52 AT END OF TIME STEP    1, STRESS PERIOD    1
1
  VOLUMETRIC BUDGET FOR ENTIRE MODEL AT END OF TIME STEP    1, STRESS PERIOD   1
  ------------------------------------------------------------------------------

     CUMULATIVE VOLUMES      L**3       RATES FOR THIS TIME STEP      L**3/T
     ------------------                 ------------------------

           IN:                                      IN:
           ---                                      ---
             STORAGE =           0.0000               STORAGE =           0.0000
       CONSTANT HEAD =           0.0000         CONSTANT HEAD =           0.0000
               WELLS =         375.0000                 WELLS =         375.0000
       RIVER LEAKAGE =      112591.1797         RIVER LEAKAGE =      112591.1797
                  ET =           0.0000                    ET =           0.0000
            RECHARGE =       33199.9961              RECHARGE =       33199.9961

            TOTAL IN =      146166.1719              TOTAL IN =      146166.1719

          OUT:                                     OUT:
          ----                                     ----
             STORAGE =           0.0000               STORAGE =           0.0000
       CONSTANT HEAD =       90074.5781         CONSTANT HEAD =       90074.5781
               WELLS =        6000.0000                 WELLS =        6000.0000
       RIVER LEAKAGE =           0.0000         RIVER LEAKAGE =           0.0000
                  ET =       50091.5156                    ET =       50091.5156
            RECHARGE =           0.0000              RECHARGE =           0.0000

           TOTAL OUT =      146166.0938             TOTAL OUT =      146166.0938

            IN - OUT =       7.8125E-02              IN - OUT =       7.8125E-02

 PERCENT DISCREPANCY =           0.00     PERCENT DISCREPANCY =           0.00






         TIME SUMMARY AT END OF TIME STEP    1 IN STRESS PERIOD    1
                    SECONDS     MINUTES      HOURS       DAYS        YEARS
                    -----------------------------------------------------------
   TIME STEP LENGTH  86400.      1440.0      24.000      1.0000     2.73785E-03
 STRESS PERIOD TIME  86400.      1440.0      24.000      1.0000     2.73785E-03
         TOTAL TIME  86400.      1440.0      24.000      1.0000     2.73785E-03
1

 Run end date and time (yyyy/mm/dd hh:mm:ss): 2026/02/24 18:07:42
 Elapsed run time: 15.606 Seconds

