                                  MODFLOW-2005     
      U.S. GEOLOGICAL SURVEY MODULAR FINITE-DIFFERENCE GROUND-WATER FLOW MODEL
                            VERSION 1.12.00 2/3/2017

 LIST FILE: ThreeLayer.list
                         UNIT    2

 OPENING ThreeLayer.dis
 FILE TYPE:DIS   UNIT   11   STATUS:OLD    
 FORMAT:FORMATTED              ACCESS:SEQUENTIAL          

 OPENING ThreeLayer.bas
 FILE TYPE:BAS6   UNIT   13   STATUS:OLD    
 FORMAT:FORMATTED              ACCESS:SEQUENTIAL          

 OPENING ThreeLayer.lpf
 FILE TYPE:LPF   UNIT   15   STATUS:OLD    
 FORMAT:FORMATTED              ACCESS:SEQUENTIAL          

 OPENING ThreeLayer.rch
 FILE TYPE:RCH   UNIT   19   STATUS:OLD    
 FORMAT:FORMATTED              ACCESS:SEQUENTIAL          

 OPENING ThreeLayer.wel
 FILE TYPE:WEL   UNIT   20   STATUS:OLD    
 FORMAT:FORMATTED              ACCESS:SEQUENTIAL          

 OPENING ThreeLayer.oc
 FILE TYPE:OC   UNIT   14   STATUS:OLD    
 FORMAT:FORMATTED              ACCESS:SEQUENTIAL          

 OPENING ThreeLayer.pcg
 FILE TYPE:PCG   UNIT   27   STATUS:OLD    
 FORMAT:FORMATTED              ACCESS:SEQUENTIAL          

 OPENING ThreeLayer.cbc
 FILE TYPE:DATA(BINARY)   UNIT   53   STATUS:REPLACE
 FORMAT:UNFORMATTED            ACCESS:STREAM              

 OPENING ThreeLayer.hds
 FILE TYPE:DATA(BINARY)   UNIT   51   STATUS:REPLACE
 FORMAT:UNFORMATTED            ACCESS:STREAM              

 BAS -- BASIC PACKAGE, VERSION 7, 5/2/2005 INPUT READ FROM UNIT   13
 
 MODFLOW was compiled using mixed precision
 Precision of REAL variables:           6
 Precision of DOUBLE PRECISION variables:          15

 DISCRETIZATION INPUT DATA READ FROM UNIT   11
 # DIS package for MODFLOW-2005 generated by Flopy 3.9.5
    3 LAYERS        50 ROWS        50 COLUMNS
    1 STRESS PERIOD(S) IN SIMULATION
 MODEL TIME UNIT IS DAYS
 MODEL LENGTH UNIT IS METERS
  Confining bed flag for each layer:
   0   0   0

                     DELR =   100.000    

                     DELC =   100.000    



           TOP ELEVATION OF LAYER 1
 READING ON UNIT   11 WITH FORMAT: (50E15.6)           



             MODEL LAYER BOTTOM EL. FOR LAYER   1
 READING ON UNIT   11 WITH FORMAT: (50E15.6)           



             MODEL LAYER BOTTOM EL. FOR LAYER   2
 READING ON UNIT   11 WITH FORMAT: (50E15.6)           



             MODEL LAYER BOTTOM EL. FOR LAYER   3
 READING ON UNIT   11 WITH FORMAT: (50E15.6)           


 STRESS PERIOD     LENGTH       TIME STEPS     MULTIPLIER FOR DELT    SS FLAG
 ----------------------------------------------------------------------------
        1         1.000000          1                    1.000         SS

 STEADY-STATE SIMULATION



 
 # BAS6 package for MODFLOW-2005 generated by Flopy 3.9.5                        
 THE FREE FORMAT OPTION HAS BEEN SELECTED



                     BOUNDARY ARRAY FOR LAYER   1
 READING ON UNIT   13 WITH FORMAT: (50I10)             



                     BOUNDARY ARRAY FOR LAYER   2
 READING ON UNIT   13 WITH FORMAT: (50I10)             



                     BOUNDARY ARRAY FOR LAYER   3
 READING ON UNIT   13 WITH FORMAT: (50I10)             

 AQUIFER HEAD WILL BE SET TO  -999.99     AT ALL NO-FLOW NODES (IBOUND=0).



                       INITIAL HEAD FOR LAYER   1
 READING ON UNIT   13 WITH FORMAT: (50E15.6)           



                       INITIAL HEAD FOR LAYER   2
 READING ON UNIT   13 WITH FORMAT: (50E15.6)           



                       INITIAL HEAD FOR LAYER   3
 READING ON UNIT   13 WITH FORMAT: (50E15.6)           
 # OC package for MODFLOW-2005 generated by Flopy 3.9.5

 OUTPUT CONTROL IS SPECIFIED ONLY AT TIME STEPS FOR WHICH OUTPUT IS DESIRED
 COMPACT CELL-BY-CELL BUDGET FILES WILL BE WRITTEN
 AUXILIARY DATA WILL BE SAVED IN CELL-BY-CELL BUDGET FILES
 HEAD PRINT FORMAT CODE IS   0    DRAWDOWN PRINT FORMAT CODE IS   0
 HEADS WILL BE SAVED ON UNIT   51    DRAWDOWNS WILL BE SAVED ON UNIT    0

 LPF -- LAYER-PROPERTY FLOW PACKAGE, VERSION 7, 5/2/2005
         INPUT READ FROM UNIT   15
 # LPF package for MODFLOW-2005 generated by Flopy 3.9.5
 CELL-BY-CELL FLOWS WILL BE SAVED ON UNIT   53
 HEAD AT CELLS THAT CONVERT TO DRY= -1.00000E+30
 No named parameters
 STORAGECOEFFICIENT OPTION:
 Read storage coefficient rather than specific storage

   LAYER FLAGS:
 LAYER       LAYTYP        LAYAVG         CHANI        LAYVKA        LAYWET
 ---------------------------------------------------------------------------
    1             1             0     1.000E+00             0             0
    2             1             0     1.000E+00             0             0
    3             1             0     1.000E+00             0             0

   INTERPRETATION OF LAYER FLAGS:
                        INTERBLOCK     HORIZONTAL    DATA IN
         LAYER TYPE   TRANSMISSIVITY   ANISOTROPY   ARRAY VKA   WETTABILITY
 LAYER      (LAYTYP)      (LAYAVG)       (CHANI)      (LAYVKA)      (LAYWET)
 ---------------------------------------------------------------------------
    1   CONVERTIBLE      HARMONIC     1.000E+00    VERTICAL K  NON-WETTABLE
    2   CONVERTIBLE      HARMONIC     1.000E+00    VERTICAL K  NON-WETTABLE
    3   CONVERTIBLE      HARMONIC     1.000E+00    VERTICAL K  NON-WETTABLE

 WETTING CAPABILITY IS NOT ACTIVE IN ANY LAYER



              HYD. COND. ALONG ROWS FOR LAYER   1
 READING ON UNIT   15 WITH FORMAT: (50E15.6)           



                VERTICAL HYD. COND. FOR LAYER   1
 READING ON UNIT   15 WITH FORMAT: (50E15.6)           



              HYD. COND. ALONG ROWS FOR LAYER   2
 READING ON UNIT   15 WITH FORMAT: (50E15.6)           



                VERTICAL HYD. COND. FOR LAYER   2
 READING ON UNIT   15 WITH FORMAT: (50E15.6)           



              HYD. COND. ALONG ROWS FOR LAYER   3
 READING ON UNIT   15 WITH FORMAT: (50E15.6)           



                VERTICAL HYD. COND. FOR LAYER   3
 READING ON UNIT   15 WITH FORMAT: (50E15.6)           

 WEL -- WELL PACKAGE, VERSION 7, 5/2/2005 INPUT READ FROM UNIT   20
 # WEL package for MODFLOW-2005 generated by Flopy 3.9.5
 No named parameters
 MAXIMUM OF      1 ACTIVE WELLS AT ONE TIME


     0 Well parameters

 RCH -- RECHARGE PACKAGE, VERSION 7, 5/2/2005 INPUT READ FROM UNIT   19
 # RCH package for MODFLOW-2005 generated by Flopy 3.9.5
 No named parameters
 OPTION 3 -- RECHARGE TO HIGHEST ACTIVE NODE IN EACH VERTICAL COLUMN
 CELL-BY-CELL FLOWS WILL BE SAVED ON UNIT   53


     0 Recharge parameters

 PCG -- CONJUGATE-GRADIENT SOLUTION PACKAGE, VERSION 7, 5/2/2005
 # PCG package for MODFLOW-2005 generated by Flopy 3.9.5
 MAXIMUM OF     50 CALLS OF SOLUTION ROUTINE
 MAXIMUM OF     30 INTERNAL ITERATIONS PER CALL TO SOLUTION ROUTINE
 MATRIX PRECONDITIONING TYPE :    1



                                    SOLUTION BY THE CONJUGATE-GRADIENT METHOD
                                   -------------------------------------------
                    MAXIMUM NUMBER OF CALLS TO PCG ROUTINE =       50
                        MAXIMUM ITERATIONS PER CALL TO PCG =       30
                               MATRIX PRECONDITIONING TYPE =        1
        RELAXATION FACTOR (ONLY USED WITH PRECOND. TYPE 1) =    0.10000E+01
 PARAMETER OF POLYNOMIAL PRECOND. = 2 (2) OR IS CALCULATED :        0
                         HEAD CHANGE CRITERION FOR CLOSURE =    0.10000E-04
                     RESIDUAL CHANGE CRITERION FOR CLOSURE =    0.10000E-04
            PCG HEAD AND RESIDUAL CHANGE PRINTOUT INTERVAL =      999
     PRINTING FROM SOLVER IS LIMITED(1) OR SUPPRESSED (>1) =        3
                            STEADY-STATE DAMPING PARAMETER =    0.10000E+01
                               TRANSIENT DAMPING PARAMETER =    0.10000E+01
1
                            STRESS PERIOD NO.    1, LENGTH =   1.000000    
                            -----------------------------------------------

                              NUMBER OF TIME STEPS =     1

                               MULTIPLIER FOR DELT =     1.000

                            INITIAL TIME STEP SIZE =   1.000000    

 WELL NO.  LAYER   ROW   COL   STRESS RATE         
 --------------------------------------------------
      1      3     25     25      -500.0    

      1 WELL 



                           RECHARGE
 READING ON UNIT   19 WITH FORMAT: (50E15.6)           
 
 SOLVING FOR HEAD 

 OUTPUT CONTROL FOR STRESS PERIOD    1   TIME STEP    1
    PRINT HEAD FOR ALL LAYERS
    PRINT BUDGET
    SAVE HEAD FOR ALL LAYERS
    SAVE BUDGET
 UBDSV2 SAVING "   CONSTANT HEAD" ON UNIT  53 AT TIME STEP  1, STRESS PERIOD   1
 UBDSV1 SAVING "FLOW RIGHT FACE " ON UNIT  53 AT TIME STEP  1, STRESS PERIOD   1
 UBDSV1 SAVING "FLOW FRONT FACE " ON UNIT  53 AT TIME STEP  1, STRESS PERIOD   1
 UBDSV1 SAVING "FLOW LOWER FACE " ON UNIT  53 AT TIME STEP  1, STRESS PERIOD   1
 UBDSV3 SAVING "        RECHARGE" ON UNIT  53 AT TIME STEP  1, STRESS PERIOD   1
1
              HEAD IN LAYER   1 AT END OF TIME STEP   1 IN STRESS PERIOD    1
  ---------------------------------------------------------------------------

            1           2           3           4           5           6           7           8           9          10
           11          12          13          14          15          16          17          18          19          20
           21          22          23          24          25          26          27          28          29          30
           31          32          33          34          35          36          37          38          39          40
           41          42          43          44          45          46          47          48          49          50
 ........................................................................................................................
   1    85.00       84.89       84.76       84.63       84.49       84.33       84.17       84.00       83.83       83.64    
        83.45       83.25       83.04       82.83       82.61       82.38       82.14       81.90       81.65       81.40    
        81.14       80.87       80.60       80.32       80.04       79.75       79.45       79.14       78.83       78.52    
        78.19       77.86       77.52       77.17       76.81       76.45       76.07       75.68       75.29       74.88    
        74.46       74.03       73.58       73.12       72.65       72.16       71.65       71.12       70.57       70.00    
   2    85.00       84.89       84.76       84.63       84.48       84.33       84.17       84.00       83.83       83.64    
        83.45       83.25       83.04       82.83       82.60       82.38       82.14       81.90       81.65       81.40    
        81.14       80.87       80.60       80.32       80.04       79.74       79.45       79.14       78.83       78.51    
        78.19       77.86       77.52       77.17       76.81       76.44       76.07       75.68       75.29       74.88    
        74.46       74.03       73.58       73.12       72.65       72.16       71.65       71.12       70.57       70.00    
   3    85.00       84.89       84.76       84.63       84.48       84.33       84.17       84.00       83.83       83.64    
        83.45       83.25       83.04       82.82       82.60       82.37       82.14       81.90       81.65       81.40    
        81.14       80.87       80.60       80.32       80.03       79.74       79.44       79.14       78.83       78.51    
        78.19       77.85       77.51       77.16       76.81       76.44       76.07       75.68       75.28       74.88    
        74.46       74.03       73.58       73.12       72.65       72.16       71.65       71.12       70.57       70.00    
   4    85.00       84.89       84.76       84.63       84.48       84.33       84.17       84.00       83.82       83.64    
        83.44       83.24       83.04       82.82       82.60       82.37       82.14       81.89       81.65       81.39    
        81.13       80.86       80.59       80.31       80.03       79.74       79.44       79.13       78.82       78.51    
        78.18       77.85       77.51       77.16       76.80       76.44       76.06       75.68       75.28       74.88    
        74.46       74.02       73.58       73.12       72.65       72.15       71.65       71.12       70.57       70.00    
   5    85.00       84.89       84.76       84.63       84.48       84.33       84.17       84.00       83.82       83.64    
        83.44       83.24       83.03       82.82       82.59       82.37       82.13       81.89       81.64       81.38    
        81.12       80.86       80.58       80.31       80.02       79.73       79.43       79.13       78.82       78.50    
        78.17       77.84       77.50       77.15       76.80       76.43       76.06       75.67       75.28       74.87    
        74.45       74.02       73.58       73.12       72.64       72.15       71.64       71.12       70.57       70.00    
   6    85.00       84.88       84.76       84.62       84.48       84.33       84.17       84.00       83.82       83.63    
        83.44       83.24       83.03       82.81       82.59       82.36       82.12       81.88       81.63       81.38    
        81.12       80.85       80.58       80.30       80.01       79.72       79.42       79.12       78.81       78.49    
        78.17       77.84       77.50       77.15       76.79       76.43       76.05       75.67       75.27       74.87    
        74.45       74.02       73.57       73.12       72.64       72.15       71.64       71.12       70.57       70.00    
   7    85.00       84.88       84.76       84.62       84.48       84.33       84.16       83.99       83.81       83.63    
        83.43       83.23       83.02       82.81       82.58       82.35       82.12       81.87       81.62       81.37    
        81.11       80.84       80.57       80.29       80.00       79.71       79.41       79.11       78.80       78.48    
        78.16       77.83       77.49       77.14       76.78       76.42       76.05       75.66       75.27       74.86    
        74.44       74.01       73.57       73.11       72.64       72.15       71.64       71.12       70.57       70.00    
   8    85.00       84.88       84.76       84.62       84.48       84.32       84.16       83.99       83.81       83.62    
        83.43       83.23       83.02       82.80       82.58       82.34       82.11       81.86       81.61       81.36    
        81.10       80.83       80.56       80.28       79.99       79.70       79.40       79.10       78.79       78.47    
        78.15       77.82       77.48       77.13       76.78       76.41       76.04       75.66       75.26       74.86    
        74.44       74.01       73.57       73.11       72.64       72.15       71.64       71.11       70.57       70.00    
   9    85.00       84.88       84.76       84.62       84.48       84.32       84.16       83.99       83.81       83.62    
        83.42       83.22       83.01       82.79       82.57       82.34       82.10       81.85       81.60       81.35    
        81.08       80.82       80.54       80.26       79.98       79.69       79.39       79.08       78.78       78.46    
        78.14       77.81       77.47       77.12       76.77       76.40       76.03       75.65       75.26       74.85    
        74.43       74.01       73.56       73.11       72.63       72.14       71.64       71.11       70.57       70.00    
  10    85.00       84.88       84.76       84.62       84.47       84.32       84.15       83.98       83.80       83.61    
        83.42       83.21       83.00       82.78       82.56       82.33       82.09       81.84       81.59       81.33    
        81.07       80.80       80.53       80.25       79.96       79.67       79.37       79.07       78.76       78.45    
        78.12       77.79       77.46       77.11       76.76       76.39       76.02       75.64       75.25       74.84    
        74.43       74.00       73.56       73.10       72.63       72.14       71.64       71.11       70.57       70.00    
  11    85.00       84.88       84.75       84.62       84.47       84.31       84.15       83.98       83.80       83.61    
        83.41       83.21       82.99       82.77       82.55       82.32       82.08       81.83       81.58       81.32    
        81.06       80.79       80.51       80.23       79.95       79.66       79.36       79.05       78.75       78.43    
        78.11       77.78       77.44       77.10       76.75       76.38       76.01       75.63       75.24       74.84    
        74.42       73.99       73.55       73.10       72.63       72.14       71.63       71.11       70.57       70.00    
  12    85.00       84.88       84.75       84.62       84.47       84.31       84.15       83.97       83.79       83.60    
        83.40       83.20       82.98       82.76       82.54       82.30       82.06       81.82       81.56       81.31    
        81.04       80.77       80.50       80.22       79.93       79.64       79.34       79.04       78.73       78.41    
        78.09       77.76       77.43       77.09       76.73       76.37       76.00       75.62       75.23       74.83    
        74.41       73.99       73.55       73.09       72.62       72.14       71.63       71.11       70.57       70.00    
  13    85.00       84.88       84.75       84.61       84.47       84.31       84.14       83.97       83.79       83.59    
        83.40       83.19       82.98       82.75       82.53       82.29       82.05       81.80       81.55       81.29    
        81.02       80.75       80.48       80.20       79.91       79.62       79.32       79.02       78.71       78.40    
        78.08       77.75       77.41       77.07       76.72       76.36       75.99       75.61       75.22       74.82    
        74.41       73.98       73.54       73.09       72.62       72.13       71.63       71.11       70.56       70.00    
  14    85.00       84.88       84.75       84.61       84.46       84.31       84.14       83.96       83.78       83.59    
        83.39       83.18       82.97       82.74       82.52       82.28       82.04       81.79       81.53       81.27    
        81.01       80.74       80.46       80.18       79.89       79.60       79.30       79.00       78.69       78.38    
        78.06       77.73       77.40       77.06       76.71       76.35       75.98       75.60       75.21       74.81    
        74.40       73.98       73.54       73.08       72.62       72.13       71.63       71.11       70.56       70.00    
  15    85.00       84.88       84.75       84.61       84.46       84.30       84.13       83.96       83.77       83.58    
        83.38       83.17       82.96       82.73       82.50       82.27       82.02       81.77       81.52       81.26    
        80.99       80.72       80.44       80.16       79.87       79.58       79.28       78.98       78.67       78.36    
        78.04       77.72       77.38       77.04       76.69       76.34       75.97       75.59       75.20       74.81    
        74.39       73.97       73.53       73.08       72.61       72.13       71.63       71.10       70.56       70.00    
  16    85.00       84.88       84.75       84.61       84.46       84.30       84.13       83.95       83.77       83.58    
        83.37       83.16       82.95       82.72       82.49       82.25       82.01       81.76       81.50       81.24    
        80.97       80.70       80.42       80.14       79.85       79.56       79.26       78.96       78.65       78.34    
        78.03       77.70       77.37       77.03       76.68       76.33       75.96       75.58       75.20       74.80    
        74.39       73.96       73.53       73.07       72.61       72.12       71.62       71.10       70.56       70.00    
  17    85.00       84.88       84.75       84.61       84.46       84.30       84.13       83.95       83.76       83.57    
        83.37       83.16       82.94       82.71       82.48       82.24       82.00       81.74       81.49       81.22    
        80.95       80.68       80.40       80.12       79.83       79.54       79.24       78.94       78.64       78.32    
        78.01       77.68       77.35       77.02       76.67       76.31       75.95       75.57       75.19       74.79    
        74.38       73.96       73.52       73.07       72.60       72.12       71.62       71.10       70.56       70.00    
  18    85.00       84.88       84.75       84.60       84.45       84.29       84.12       83.95       83.76       83.56    
        83.36       83.15       82.93       82.70       82.47       82.23       81.98       81.73       81.47       81.20    
        80.93       80.66       80.38       80.09       79.81       79.51       79.22       78.92       78.62       78.31    
        77.99       77.67       77.34       77.00       76.66       76.30       75.94       75.56       75.18       74.78    
        74.37       73.95       73.52       73.07       72.60       72.12       71.62       71.10       70.56       70.00    
  19    85.00       84.88       84.74       84.60       84.45       84.29       84.12       83.94       83.75       83.56    
        83.35       83.14       82.92       82.70       82.46       82.22       81.97       81.71       81.45       81.19    
        80.91       80.64       80.36       80.07       79.78       79.49       79.20       78.90       78.60       78.29    
        77.97       77.65       77.33       76.99       76.65       76.29       75.93       75.56       75.17       74.78    
        74.37       73.95       73.51       73.06       72.60       72.12       71.62       71.10       70.56       70.00    
  20    85.00       84.88       84.74       84.60       84.45       84.29       84.12       83.94       83.75       83.55    
        83.35       83.14       82.92       82.69       82.45       82.21       81.96       81.70       81.44       81.17    
        80.90       80.62       80.34       80.05       79.76       79.47       79.18       78.88       78.58       78.27    
        77.96       77.64       77.31       76.98       76.64       76.28       75.92       75.55       75.17       74.77    
        74.36       73.94       73.51       73.06       72.60       72.11       71.62       71.10       70.56       70.00    
  21    85.00       84.88       84.74       84.60       84.45       84.29       84.11       83.94       83.75       83.55    
        83.34       83.13       82.91       82.68       82.44       82.20       81.95       81.69       81.43       81.16    
        80.88       80.60       80.32       80.03       79.74       79.45       79.16       78.86       78.56       78.26    
        77.94       77.63       77.30       76.97       76.63       76.27       75.91       75.54       75.16       74.77    
        74.36       73.94       73.51       73.06       72.59       72.11       71.61       71.10       70.56       70.00    
  22    85.00       84.88       84.74       84.60       84.45       84.28       84.11       83.93       83.74       83.55    
        83.34       83.13       82.90       82.67       82.44       82.19       81.94       81.68       81.42       81.14    
        80.87       80.59       80.30       80.01       79.72       79.43       79.14       78.85       78.55       78.24    
        77.93       77.62       77.29       76.96       76.62       76.27       75.91       75.54       75.16       74.76    
        74.36       73.94       73.50       73.05       72.59       72.11       71.61       71.10       70.56       70.00    
  23    85.00       84.88       84.74       84.60       84.45       84.28       84.11       83.93       83.74       83.54    
        83.34       83.12       82.90       82.67       82.43       82.19       81.93       81.67       81.41       81.14    
        80.86       80.57       80.29       80.00       79.71       79.42       79.13       78.83       78.54       78.23    
        77.92       77.61       77.29       76.95       76.61       76.26       75.90       75.53       75.15       74.76    
        74.35       73.93       73.50       73.05       72.59       72.11       71.61       71.10       70.56       70.00    
  24    85.00       84.88       84.74       84.60       84.45       84.28       84.11       83.93       83.74       83.54    
        83.34       83.12       82.90       82.67       82.43       82.18       81.93       81.67       81.40       81.13    
        80.85       80.57       80.28       79.99       79.69       79.41       79.12       78.82       78.53       78.23    
        77.92       77.60       77.28       76.95       76.61       76.26       75.90       75.53       75.15       74.76    
        74.35       73.93       73.50       73.05       72.59       72.11       71.61       71.10       70.56       70.00    
  25    85.00       84.88       84.74       84.60       84.45       84.28       84.11       83.93       83.74       83.54    
        83.34       83.12       82.90       82.67       82.43       82.18       81.93       81.67       81.40       81.13    
        80.85       80.56       80.27       79.98       79.69       79.40       79.11       78.82       78.53       78.23    
        77.92       77.60       77.28       76.95       76.61       76.26       75.90       75.53       75.15       74.76    
        74.35       73.93       73.50       73.05       72.59       72.11       71.61       71.10       70.56       70.00    
  26    85.00       84.88       84.74       84.60       84.45       84.28       84.11       83.93       83.74       83.54    
        83.34       83.12       82.90       82.67       82.43       82.19       81.93       81.67       81.40       81.13    
        80.85       80.57       80.28       79.99       79.70       79.41       79.12       78.83       78.53       78.23    
        77.92       77.61       77.28       76.95       76.61       76.26       75.90       75.53       75.15       74.76    
        74.35       73.93       73.50       73.05       72.59       72.11       71.61       71.10       70.56       70.00    
  27    85.00       84.88       84.74       84.60       84.45       84.28       84.11       83.93       83.74       83.55    
        83.34       83.13       82.90       82.67       82.43       82.19       81.94       81.68       81.41       81.14    
        80.86       80.58       80.29       80.00       79.71       79.42       79.13       78.84       78.54       78.24    
        77.93       77.61       77.29       76.96       76.62       76.27       75.91       75.54       75.15       74.76    
        74.35       73.94       73.50       73.05       72.59       72.11       71.61       71.10       70.56       70.00    
  28    85.00       84.88       84.74       84.60       84.45       84.29       84.11       83.93       83.75       83.55    
        83.34       83.13       82.91       82.68       82.44       82.20       81.94       81.68       81.42       81.15    
        80.87       80.59       80.30       80.02       79.73       79.44       79.14       78.85       78.55       78.25    
        77.94       77.62       77.30       76.96       76.62       76.27       75.91       75.54       75.16       74.76    
        74.36       73.94       73.50       73.06       72.59       72.11       71.61       71.10       70.56       70.00    
  29    85.00       84.88       84.74       84.60       84.45       84.29       84.12       83.94       83.75       83.55    
        83.35       83.13       82.91       82.68       82.45       82.20       81.95       81.69       81.43       81.16    
        80.89       80.61       80.32       80.04       79.75       79.46       79.16       78.87       78.57       78.26    
        77.95       77.63       77.31       76.97       76.63       76.28       75.92       75.55       75.16       74.77    
        74.36       73.94       73.51       73.06       72.59       72.11       71.62       71.10       70.56       70.00    
  30    85.00       84.88       84.74       84.60       84.45       84.29       84.12       83.94       83.75       83.56    
        83.35       83.14       82.92       82.69       82.46       82.21       81.96       81.71       81.44       81.18    
        80.90       80.62       80.34       80.06       79.77       79.48       79.18       78.89       78.58       78.28    
        77.96       77.64       77.32       76.98       76.64       76.29       75.93       75.55       75.17       74.77    
        74.37       73.95       73.51       73.06       72.60       72.12       71.62       71.10       70.56       70.00    
  31    85.00       84.88       84.75       84.60       84.45       84.29       84.12       83.94       83.76       83.56    
        83.36       83.15       82.93       82.70       82.47       82.22       81.98       81.72       81.46       81.19    
        80.92       80.64       80.36       80.08       79.79       79.50       79.20       78.91       78.60       78.29    
        77.98       77.66       77.33       77.00       76.65       76.30       75.93       75.56       75.18       74.78    
        74.37       73.95       73.52       73.07       72.60       72.12       71.62       71.10       70.56       70.00    
  32    85.00       84.88       84.75       84.61       84.45       84.30       84.13       83.95       83.76       83.57    
        83.36       83.15       82.94       82.71       82.48       82.24       81.99       81.74       81.48       81.21    
        80.94       80.67       80.39       80.10       79.81       79.52       79.23       78.93       78.62       78.31    
        78.00       77.68       77.35       77.01       76.66       76.31       75.94       75.57       75.18       74.79    
        74.38       73.96       73.52       73.07       72.60       72.12       71.62       71.10       70.56       70.00    
  33    85.00       84.88       84.75       84.61       84.46       84.30       84.13       83.95       83.77       83.57    
        83.37       83.16       82.95       82.72       82.49       82.25       82.00       81.75       81.49       81.23    
        80.96       80.69       80.41       80.12       79.84       79.55       79.25       78.95       78.64       78.33    
        78.02       77.69       77.36       77.02       76.68       76.32       75.96       75.58       75.19       74.80    
        74.39       73.96       73.53       73.07       72.61       72.12       71.62       71.10       70.56       70.00    
  34    85.00       84.88       84.75       84.61       84.46       84.30       84.13       83.96       83.77       83.58    
        83.38       83.17       82.95       82.73       82.50       82.26       82.02       81.77       81.51       81.25    
        80.98       80.71       80.43       80.15       79.86       79.57       79.27       78.97       78.67       78.35    
        78.04       77.71       77.38       77.04       76.69       76.33       75.97       75.59       75.20       74.80    
        74.39       73.97       73.53       73.08       72.61       72.13       71.63       71.10       70.56       70.00    
  35    85.00       84.88       84.75       84.61       84.46       84.31       84.14       83.96       83.78       83.59    
        83.39       83.18       82.96       82.74       82.51       82.28       82.03       81.78       81.53       81.27    
        81.00       80.73       80.45       80.17       79.88       79.59       79.29       78.99       78.69       78.37    
        78.05       77.73       77.40       77.05       76.71       76.35       75.98       75.60       75.21       74.81    
        74.40       73.98       73.54       73.08       72.62       72.13       71.63       71.11       70.56       70.00    
  36    85.00       84.88       84.75       84.61       84.47       84.31       84.14       83.97       83.79       83.59    
        83.40       83.19       82.97       82.75       82.52       82.29       82.05       81.80       81.55       81.29    
        81.02       80.75       80.47       80.19       79.90       79.61       79.32       79.01       78.71       78.39    
        78.07       77.75       77.41       77.07       76.72       76.36       75.99       75.61       75.22       74.82    
        74.41       73.98       73.54       73.09       72.62       72.13       71.63       71.11       70.56       70.00    
  37    85.00       84.88       84.75       84.62       84.47       84.31       84.15       83.97       83.79       83.60    
        83.40       83.20       82.98       82.76       82.54       82.30       82.06       81.82       81.56       81.30    
        81.04       80.77       80.49       80.21       79.93       79.63       79.34       79.03       78.73       78.41    
        78.09       77.76       77.43       77.08       76.73       76.37       76.00       75.62       75.23       74.83    
        74.42       73.99       73.55       73.09       72.62       72.14       71.63       71.11       70.57       70.00    
  38    85.00       84.88       84.76       84.62       84.47       84.32       84.15       83.98       83.80       83.61    
        83.41       83.21       82.99       82.78       82.55       82.32       82.08       81.83       81.58       81.32    
        81.06       80.79       80.51       80.23       79.95       79.65       79.36       79.05       78.75       78.43    
        78.11       77.78       77.44       77.10       76.75       76.39       76.01       75.63       75.24       74.84    
        74.42       74.00       73.56       73.10       72.63       72.14       71.64       71.11       70.57       70.00    
  39    85.00       84.88       84.76       84.62       84.47       84.32       84.16       83.98       83.80       83.62    
        83.42       83.22       83.00       82.79       82.56       82.33       82.09       81.84       81.59       81.34    
        81.07       80.80       80.53       80.25       79.96       79.67       79.38       79.07       78.76       78.45    
        78.12       77.80       77.46       77.11       76.76       76.40       76.03       75.64       75.25       74.85    
        74.43       74.00       73.56       73.10       72.63       72.14       71.64       71.11       70.57       70.00    
  40    85.00       84.88       84.76       84.62       84.48       84.32       84.16       83.99       83.81       83.62    
        83.43       83.22       83.01       82.80       82.57       82.34       82.10       81.86       81.61       81.35    
        81.09       80.82       80.55       80.27       79.98       79.69       79.39       79.09       78.78       78.46    
        78.14       77.81       77.47       77.13       76.77       76.41       76.04       75.65       75.26       74.86    
        74.44       74.01       73.57       73.11       72.64       72.15       71.64       71.11       70.57       70.00    
  41    85.00       84.88       84.76       84.62       84.48       84.33       84.16       83.99       83.82       83.63    
        83.43       83.23       83.02       82.81       82.58       82.35       82.11       81.87       81.62       81.37    
        81.10       80.84       80.56       80.28       80.00       79.71       79.41       79.10       78.79       78.48    
        78.15       77.82       77.49       77.14       76.78       76.42       76.05       75.66       75.27       74.86    
        74.45       74.02       73.57       73.11       72.64       72.15       71.64       71.12       70.57       70.00    
  42    85.00       84.89       84.76       84.63       84.48       84.33       84.17       84.00       83.82       83.63    
        83.44       83.24       83.03       82.81       82.59       82.36       82.13       81.88       81.63       81.38    
        81.12       80.85       80.58       80.30       80.01       79.72       79.42       79.12       78.81       78.49    
        78.17       77.84       77.50       77.15       76.79       76.43       76.06       75.67       75.28       74.87    
        74.45       74.02       73.58       73.12       72.64       72.15       71.65       71.12       70.57       70.00    
  43    85.00       84.89       84.76       84.63       84.48       84.33       84.17       84.00       83.82       83.64    
        83.45       83.25       83.04       82.82       82.60       82.37       82.13       81.89       81.64       81.39    
        81.13       80.86       80.59       80.31       80.02       79.73       79.44       79.13       78.82       78.50    
        78.18       77.85       77.51       77.16       76.80       76.44       76.06       75.68       75.28       74.88    
        74.46       74.03       73.58       73.12       72.65       72.16       71.65       71.12       70.57       70.00    
  44    85.00       84.89       84.76       84.63       84.49       84.33       84.17       84.01       83.83       83.64    
        83.45       83.25       83.04       82.83       82.61       82.38       82.14       81.90       81.65       81.40    
        81.14       80.87       80.60       80.32       80.04       79.75       79.45       79.14       78.83       78.52    
        78.19       77.86       77.52       77.17       76.81       76.45       76.07       75.69       75.29       74.88    
        74.46       74.03       73.59       73.13       72.65       72.16       71.65       71.12       70.57       70.00    
  45    85.00       84.89       84.76       84.63       84.49       84.34       84.18       84.01       83.83       83.65    
        83.46       83.26       83.05       82.83       82.61       82.39       82.15       81.91       81.66       81.41    
        81.15       80.88       80.61       80.33       80.05       79.76       79.46       79.15       78.84       78.52    
        78.20       77.87       77.53       77.18       76.82       76.45       76.08       75.69       75.30       74.89    
        74.47       74.04       73.59       73.13       72.65       72.16       71.65       71.12       70.57       70.00    
  46    85.00       84.89       84.76       84.63       84.49       84.34       84.18       84.01       83.84       83.65    
        83.46       83.26       83.05       82.84       82.62       82.39       82.16       81.92       81.67       81.42    
        81.16       80.89       80.62       80.34       80.05       79.76       79.47       79.16       78.85       78.53    
        78.21       77.87       77.53       77.18       76.83       76.46       76.08       75.70       75.30       74.89    
        74.47       74.04       73.59       73.13       72.66       72.16       71.65       71.12       70.57       70.00    
  47    85.00       84.89       84.76       84.63       84.49       84.34       84.18       84.01       83.84       83.65    
        83.46       83.26       83.06       82.84       82.62       82.40       82.16       81.92       81.68       81.42    
        81.16       80.90       80.62       80.35       80.06       79.77       79.47       79.17       78.86       78.54    
        78.21       77.88       77.54       77.19       76.83       76.47       76.09       75.70       75.30       74.90    
        74.48       74.04       73.60       73.13       72.66       72.16       71.65       71.12       70.57       70.00    
  48    85.00       84.89       84.76       84.63       84.49       84.34       84.18       84.02       83.84       83.66    
        83.47       83.27       83.06       82.85       82.63       82.40       82.17       81.93       81.68       81.43    
        81.17       80.90       80.63       80.35       80.07       79.78       79.48       79.17       78.86       78.54    
        78.22       77.88       77.54       77.19       76.84       76.47       76.09       75.71       75.31       74.90    
        74.48       74.04       73.60       73.14       72.66       72.17       71.65       71.12       70.57       70.00    
  49    85.00       84.89       84.77       84.63       84.49       84.34       84.18       84.02       83.84       83.66    
        83.47       83.27       83.06       82.85       82.63       82.40       82.17       81.93       81.68       81.43    
        81.17       80.90       80.63       80.35       80.07       79.78       79.48       79.18       78.87       78.55    
        78.22       77.89       77.55       77.20       76.84       76.47       76.09       75.71       75.31       74.90    
        74.48       74.05       73.60       73.14       72.66       72.17       71.65       71.12       70.57       70.00    
  50    85.00       84.89       84.77       84.63       84.49       84.34       84.18       84.02       83.84       83.66    
        83.47       83.27       83.06       82.85       82.63       82.40       82.17       81.93       81.68       81.43    
        81.17       80.91       80.63       80.36       80.07       79.78       79.48       79.18       78.87       78.55    
        78.22       77.89       77.55       77.20       76.84       76.47       76.10       75.71       75.31       74.90    
        74.48       74.05       73.60       73.14       72.66       72.17       71.65       71.12       70.57       70.00    
1
              HEAD IN LAYER   2 AT END OF TIME STEP   1 IN STRESS PERIOD    1
  ---------------------------------------------------------------------------

            1           2           3           4           5           6           7           8           9          10
           11          12          13          14          15          16          17          18          19          20
           21          22          23          24          25          26          27          28          29          30
           31          32          33          34          35          36          37          38          39          40
           41          42          43          44          45          46          47          48          49          50
 ........................................................................................................................
   1    85.00       84.80       84.59       84.38       84.16       83.94       83.71       83.48       83.24       83.00    
        82.75       82.50       82.25       81.99       81.73       81.46       81.19       80.92       80.64       80.36    
        80.08       79.79       79.50       79.21       78.92       78.62       78.32       78.02       77.72       77.41    
        77.10       76.78       76.46       76.14       75.81       75.47       75.13       74.78       74.43       74.07    
        73.70       73.33       72.95       72.55       72.15       71.74       71.32       70.89       70.45       70.00    
   2    85.00       84.80       84.59       84.38       84.16       83.94       83.71       83.48       83.24       83.00    
        82.75       82.50       82.25       81.99       81.72       81.46       81.19       80.91       80.64       80.36    
        80.07       79.79       79.50       79.21       78.91       78.62       78.32       78.02       77.71       77.40    
        77.09       76.78       76.46       76.13       75.80       75.47       75.13       74.78       74.43       74.07    
        73.70       73.33       72.94       72.55       72.15       71.74       71.32       70.89       70.45       70.00    
   3    85.00       84.80       84.59       84.38       84.16       83.94       83.71       83.47       83.24       82.99    
        82.75       82.50       82.24       81.98       81.72       81.45       81.18       80.90       80.63       80.34    
        80.06       79.78       79.49       79.20       78.90       78.61       78.31       78.01       77.70       77.39    
        77.08       76.77       76.45       76.12       75.80       75.46       75.12       74.78       74.42       74.06    
        73.70       73.32       72.94       72.55       72.15       71.74       71.32       70.89       70.45       70.00    
   4    85.00       84.80       84.59       84.37       84.16       83.93       83.70       83.47       83.23       82.99    
        82.74       82.49       82.23       81.97       81.70       81.44       81.16       80.89       80.61       80.33    
        80.05       79.76       79.47       79.18       78.88       78.59       78.29       77.99       77.69       77.38    
        77.07       76.75       76.43       76.11       75.78       75.45       75.11       74.77       74.42       74.06    
        73.69       73.32       72.94       72.55       72.15       71.74       71.32       70.89       70.45       70.00    
   5    85.00       84.80       84.59       84.37       84.15       83.93       83.70       83.46       83.22       82.98    
        82.73       82.48       82.22       81.96       81.69       81.42       81.15       80.87       80.59       80.31    
        80.02       79.74       79.45       79.16       78.86       78.57       78.27       77.97       77.66       77.36    
        77.05       76.73       76.42       76.10       75.77       75.44       75.10       74.76       74.41       74.05    
        73.68       73.31       72.93       72.54       72.14       71.73       71.32       70.89       70.45       70.00    
   6    85.00       84.79       84.58       84.37       84.15       83.92       83.69       83.46       83.21       82.97    
        82.72       82.46       82.20       81.94       81.67       81.40       81.12       80.85       80.57       80.28    
        80.00       79.71       79.42       79.13       78.83       78.54       78.24       77.94       77.64       77.33    
        77.02       76.71       76.39       76.07       75.75       75.42       75.08       74.74       74.39       74.04    
        73.67       73.30       72.92       72.53       72.14       71.73       71.31       70.89       70.45       70.00    
   7    85.00       84.79       84.58       84.36       84.14       83.92       83.68       83.45       83.20       82.96    
        82.70       82.45       82.18       81.92       81.65       81.38       81.10       80.82       80.54       80.25    
        79.96       79.67       79.38       79.09       78.79       78.50       78.20       77.90       77.60       77.30    
        76.99       76.68       76.37       76.05       75.73       75.40       75.06       74.72       74.38       74.02    
        73.66       73.29       72.91       72.53       72.13       71.73       71.31       70.88       70.45       70.00    
   8    85.00       84.79       84.58       84.36       84.14       83.91       83.67       83.43       83.19       82.94    
        82.69       82.43       82.16       81.89       81.62       81.35       81.07       80.78       80.50       80.21    
        79.92       79.63       79.34       79.05       78.75       78.46       78.16       77.86       77.56       77.26    
        76.95       76.65       76.34       76.02       75.70       75.37       75.04       74.70       74.36       74.01    
        73.65       73.28       72.90       72.52       72.12       71.72       71.31       70.88       70.45       70.00    
   9    85.00       84.79       84.58       84.36       84.13       83.90       83.66       83.42       83.18       82.92    
        82.67       82.41       82.14       81.87       81.59       81.31       81.03       80.75       80.46       80.17    
        79.88       79.58       79.29       78.99       78.70       78.40       78.11       77.81       77.51       77.21    
        76.91       76.61       76.30       75.99       75.67       75.35       75.02       74.68       74.34       73.99    
        73.63       73.27       72.89       72.51       72.12       71.71       71.30       70.88       70.45       70.00    
  10    85.00       84.79       84.57       84.35       84.12       83.89       83.65       83.41       83.16       82.91    
        82.65       82.38       82.11       81.84       81.56       81.28       80.99       80.70       80.41       80.12    
        79.82       79.53       79.23       78.93       78.64       78.34       78.05       77.76       77.46       77.16    
        76.86       76.56       76.26       75.95       75.63       75.31       74.99       74.66       74.32       73.97    
        73.61       73.25       72.88       72.50       72.11       71.71       71.30       70.88       70.44       70.00    
  11    85.00       84.79       84.57       84.34       84.12       83.88       83.64       83.39       83.14       82.89    
        82.62       82.35       82.08       81.80       81.52       81.23       80.94       80.65       80.36       80.06    
        79.76       79.46       79.16       78.87       78.57       78.28       77.98       77.69       77.40       77.10    
        76.81       76.51       76.21       75.91       75.60       75.28       74.96       74.63       74.29       73.95    
        73.60       73.24       72.87       72.49       72.10       71.70       71.29       70.87       70.44       70.00    
  12    85.00       84.78       84.56       84.34       84.11       83.87       83.63       83.38       83.12       82.86    
        82.60       82.33       82.05       81.77       81.48       81.19       80.89       80.59       80.29       79.99    
        79.69       79.39       79.09       78.79       78.49       78.20       77.91       77.62       77.33       77.04    
        76.75       76.45       76.16       75.86       75.55       75.24       74.92       74.60       74.27       73.93    
        73.58       73.22       72.85       72.47       72.09       71.69       71.29       70.87       70.44       70.00    
  13    85.00       84.78       84.56       84.33       84.10       83.86       83.61       83.36       83.10       82.84    
        82.57       82.30       82.01       81.73       81.43       81.14       80.84       80.53       80.23       79.92    
        79.61       79.30       79.00       78.70       78.40       78.11       77.82       77.53       77.25       76.96    
        76.68       76.39       76.10       75.81       75.51       75.20       74.89       74.57       74.24       73.90    
        73.56       73.20       72.84       72.46       72.08       71.68       71.28       70.86       70.44       70.00    
  14    85.00       84.78       84.56       84.33       84.09       83.85       83.60       83.35       83.08       82.82    
        82.54       82.26       81.98       81.69       81.39       81.08       80.78       80.46       80.15       79.84    
        79.52       79.21       78.90       78.60       78.30       78.01       77.72       77.44       77.16       76.88    
        76.60       76.32       76.04       75.75       75.46       75.16       74.85       74.53       74.21       73.88    
        73.53       73.18       72.82       72.45       72.07       71.68       71.27       70.86       70.44       70.00    
  15    85.00       84.78       84.55       84.32       84.08       83.84       83.59       83.33       83.06       82.79    
        82.52       82.23       81.94       81.64       81.34       81.03       80.71       80.39       80.07       79.74    
        79.42       79.10       78.79       78.48       78.18       77.89       77.60       77.33       77.06       76.79    
        76.52       76.25       75.97       75.69       75.41       75.11       74.81       74.50       74.18       73.85    
        73.51       73.16       72.81       72.44       72.06       71.67       71.27       70.86       70.43       70.00    
  16    85.00       84.78       84.55       84.31       84.07       83.83       83.57       83.31       83.04       82.77    
        82.49       82.20       81.90       81.60       81.28       80.96       80.64       80.31       79.98       79.64    
        79.31       78.98       78.66       78.34       78.04       77.75       77.47       77.21       76.94       76.69    
        76.43       76.17       75.90       75.63       75.35       75.07       74.77       74.47       74.15       73.83    
        73.49       73.15       72.79       72.42       72.05       71.66       71.26       70.85       70.43       70.00    
  17    85.00       84.77       84.54       84.31       84.06       83.81       83.56       83.29       83.02       82.75    
        82.46       82.16       81.86       81.55       81.23       80.90       80.57       80.23       79.88       79.53    
        79.18       78.84       78.51       78.19       77.88       77.60       77.32       77.07       76.82       76.57    
        76.33       76.08       75.83       75.57       75.30       75.02       74.73       74.43       74.12       73.80    
        73.47       73.13       72.78       72.41       72.04       71.65       71.26       70.85       70.43       70.00    
  18    85.00       84.77       84.54       84.30       84.06       83.80       83.55       83.28       83.00       82.72    
        82.43       82.13       81.82       81.50       81.17       80.84       80.49       80.14       79.77       79.41    
        79.04       78.68       78.34       78.00       77.70       77.41       77.15       76.91       76.68       76.45    
        76.22       75.99       75.75       75.50       75.24       74.97       74.69       74.40       74.09       73.78    
        73.45       73.11       72.76       72.40       72.03       71.65       71.25       70.85       70.43       70.00    
  19    85.00       84.77       84.54       84.30       84.05       83.79       83.53       83.26       82.99       82.70    
        82.40       82.10       81.78       81.46       81.12       80.77       80.41       80.04       79.66       79.28    
        78.89       78.51       78.14       77.79       77.47       77.20       76.95       76.73       76.52       76.32    
        76.11       75.90       75.67       75.44       75.19       74.93       74.65       74.36       74.07       73.75    
        73.43       73.09       72.75       72.39       72.02       71.64       71.25       70.84       70.43       70.00    
  20    85.00       84.77       84.53       84.29       84.04       83.79       83.52       83.25       82.97       82.68    
        82.38       82.07       81.75       81.42       81.07       80.71       80.34       79.95       79.55       79.14    
        78.72       78.31       77.90       77.53       77.20       76.94       76.72       76.53       76.36       76.18    
        76.00       75.81       75.60       75.37       75.14       74.88       74.62       74.34       74.04       73.73    
        73.41       73.08       72.74       72.38       72.01       71.63       71.24       70.84       70.43       70.00    
  21    85.00       84.77       84.53       84.29       84.04       83.78       83.51       83.24       82.96       82.66    
        82.36       82.05       81.72       81.38       81.03       80.66       80.27       79.86       79.44       79.00    
        78.54       78.08       77.63       77.21       76.86       76.62       76.44       76.31       76.18       76.04    
        75.89       75.72       75.53       75.32       75.09       74.85       74.58       74.31       74.02       73.72    
        73.40       73.07       72.73       72.37       72.01       71.63       71.24       70.84       70.42       70.00    
  22    85.00       84.77       84.53       84.28       84.03       83.77       83.51       83.23       82.94       82.65    
        82.34       82.03       81.69       81.35       80.99       80.61       80.21       79.79       79.34       78.86    
        78.36       77.84       77.30       76.80       76.41       76.21       76.12       76.06       75.99       75.90    
        75.78       75.64       75.46       75.27       75.05       74.81       74.56       74.29       74.00       73.70    
        73.39       73.06       72.72       72.37       72.00       71.62       71.24       70.84       70.42       70.00    
  23    85.00       84.77       84.53       84.28       84.03       83.77       83.50       83.22       82.94       82.64    
        82.33       82.01       81.67       81.32       80.96       80.57       80.16       79.72       79.25       78.75    
        78.19       77.59       76.94       76.28       75.75       75.69       75.75       75.81       75.83       75.78    
        75.70       75.57       75.42       75.23       75.02       74.79       74.54       74.27       73.99       73.69    
        73.38       73.05       72.71       72.36       72.00       71.62       71.23       70.83       70.42       70.00    
  24    85.00       84.77       84.53       84.28       84.03       83.77       83.50       83.22       82.93       82.63    
        82.32       82.00       81.66       81.31       80.94       80.55       80.13       79.68       79.19       78.66    
        78.06       77.38       76.57       75.60       74.63       75.01       75.38       75.60       75.70       75.70    
        75.64       75.53       75.38       75.21       75.00       74.77       74.53       74.26       73.98       73.68    
        73.37       73.05       72.71       72.36       71.99       71.62       71.23       70.83       70.42       70.00    
  25    85.00       84.77       84.53       84.28       84.03       83.76       83.50       83.22       82.93       82.63    
        82.32       82.00       81.66       81.31       80.93       80.54       80.12       79.67       79.17       78.63    
        78.01       77.28       76.34       74.92       72.16       74.33       75.15       75.50       75.65       75.67    
        75.62       75.52       75.37       75.20       75.00       74.77       74.52       74.26       73.98       73.68    
        73.37       73.05       72.71       72.36       71.99       71.62       71.23       70.83       70.42       70.00    
  26    85.00       84.77       84.53       84.28       84.03       83.77       83.50       83.22       82.93       82.63    
        82.32       82.00       81.66       81.31       80.94       80.55       80.13       79.68       79.20       78.66    
        78.07       77.38       76.57       75.60       74.63       75.01       75.39       75.60       75.70       75.70    
        75.64       75.53       75.39       75.21       75.00       74.78       74.53       74.26       73.98       73.68    
        73.37       73.05       72.71       72.36       71.99       71.62       71.23       70.83       70.42       70.00    
  27    85.00       84.77       84.53       84.28       84.03       83.77       83.50       83.22       82.94       82.64    
        82.33       82.01       81.68       81.33       80.96       80.57       80.16       79.72       79.26       78.75    
        78.20       77.59       76.94       76.28       75.76       75.69       75.76       75.82       75.83       75.79    
        75.70       75.58       75.42       75.23       75.02       74.79       74.54       74.27       73.99       73.69    
        73.38       73.05       72.71       72.36       72.00       71.62       71.23       70.83       70.42       70.00    
  28    85.00       84.77       84.53       84.28       84.03       83.77       83.51       83.23       82.95       82.65    
        82.35       82.03       81.70       81.35       80.99       80.61       80.21       79.79       79.34       78.87    
        78.37       77.84       77.31       76.81       76.42       76.22       76.13       76.07       76.00       75.91    
        75.79       75.64       75.47       75.27       75.05       74.82       74.56       74.29       74.00       73.70    
        73.39       73.06       72.72       72.37       72.00       71.62       71.24       70.84       70.42       70.00    
  29    85.00       84.77       84.53       84.29       84.04       83.78       83.52       83.24       82.96       82.67    
        82.36       82.05       81.72       81.38       81.03       80.66       80.27       79.87       79.45       79.01    
        78.55       78.09       77.63       77.21       76.87       76.62       76.45       76.31       76.18       76.05    
        75.89       75.72       75.53       75.32       75.10       74.85       74.59       74.31       74.02       73.72    
        73.40       73.07       72.73       72.37       72.01       71.63       71.24       70.84       70.42       70.00    
  30    85.00       84.77       84.53       84.29       84.04       83.79       83.53       83.25       82.97       82.68    
        82.39       82.08       81.76       81.42       81.08       80.72       80.35       79.96       79.56       79.15    
        78.73       78.31       77.91       77.54       77.21       76.94       76.73       76.54       76.36       76.19    
        76.01       75.81       75.60       75.38       75.14       74.89       74.62       74.34       74.05       73.74    
        73.42       73.08       72.74       72.38       72.01       71.63       71.24       70.84       70.43       70.00    
  31    85.00       84.77       84.54       84.30       84.05       83.80       83.54       83.27       82.99       82.71    
        82.41       82.11       81.79       81.47       81.13       80.78       80.42       80.05       79.67       79.29    
        78.90       78.52       78.15       77.80       77.48       77.21       76.96       76.74       76.53       76.33    
        76.12       75.91       75.68       75.45       75.20       74.93       74.66       74.37       74.07       73.76    
        73.44       73.10       72.75       72.39       72.02       71.64       71.25       70.84       70.43       70.00    
  32    85.00       84.77       84.54       84.30       84.06       83.81       83.55       83.28       83.01       82.73    
        82.44       82.14       81.83       81.51       81.18       80.85       80.50       80.15       79.79       79.42    
        79.06       78.70       78.35       78.02       77.71       77.42       77.16       76.92       76.69       76.46    
        76.23       76.00       75.76       75.51       75.25       74.98       74.70       74.41       74.10       73.78    
        73.46       73.12       72.77       72.40       72.03       71.65       71.25       70.85       70.43       70.00    
  33    85.00       84.78       84.55       84.31       84.07       83.82       83.56       83.30       83.03       82.75    
        82.47       82.17       81.87       81.56       81.24       80.91       80.58       80.24       79.89       79.54    
        79.20       78.85       78.52       78.20       77.90       77.61       77.34       77.08       76.83       76.59    
        76.34       76.09       75.84       75.58       75.31       75.03       74.74       74.44       74.13       73.81    
        73.48       73.13       72.78       72.42       72.04       71.66       71.26       70.85       70.43       70.00    
  34    85.00       84.78       84.55       84.32       84.08       83.83       83.58       83.32       83.05       82.78    
        82.50       82.21       81.91       81.61       81.30       80.98       80.65       80.32       79.99       79.66    
        79.32       78.99       78.67       78.36       78.06       77.77       77.49       77.22       76.96       76.70    
        76.44       76.18       75.92       75.64       75.37       75.08       74.78       74.48       74.16       73.84    
        73.50       73.15       72.80       72.43       72.05       71.66       71.27       70.85       70.43       70.00    
  35    85.00       84.78       84.55       84.32       84.09       83.84       83.59       83.34       83.07       82.80    
        82.53       82.24       81.95       81.65       81.35       81.04       80.73       80.41       80.08       79.76    
        79.44       79.12       78.80       78.50       78.20       77.91       77.62       77.35       77.07       76.80    
        76.54       76.26       75.99       75.71       75.42       75.13       74.82       74.51       74.19       73.86    
        73.52       73.17       72.81       72.44       72.06       71.67       71.27       70.86       70.44       70.00    
  36    85.00       84.78       84.56       84.33       84.09       83.85       83.61       83.35       83.09       82.83    
        82.56       82.28       81.99       81.70       81.40       81.10       80.79       80.48       80.17       79.85    
        79.54       79.23       78.92       78.62       78.32       78.03       77.74       77.46       77.18       76.90    
        76.62       76.34       76.06       75.77       75.47       75.17       74.87       74.55       74.22       73.89    
        73.55       73.19       72.83       72.46       72.07       71.68       71.28       70.86       70.44       70.00    
  37    85.00       84.78       84.56       84.34       84.10       83.87       83.62       83.37       83.12       82.85    
        82.58       82.31       82.03       81.74       81.45       81.16       80.86       80.55       80.25       79.94    
        79.63       79.33       79.02       78.72       78.42       78.13       77.84       77.55       77.27       76.98    
        76.70       76.41       76.12       75.83       75.53       75.22       74.90       74.58       74.25       73.92    
        73.57       73.21       72.85       72.47       72.09       71.69       71.28       70.87       70.44       70.00    
  38    85.00       84.79       84.57       84.34       84.11       83.88       83.64       83.39       83.14       82.88    
        82.61       82.34       82.07       81.78       81.50       81.21       80.91       80.62       80.32       80.02    
        79.71       79.41       79.11       78.81       78.52       78.22       77.93       77.64       77.35       77.06    
        76.77       76.48       76.18       75.88       75.57       75.26       74.94       74.62       74.28       73.94    
        73.59       73.23       72.86       72.48       72.10       71.70       71.29       70.87       70.44       70.00    
  39    85.00       84.79       84.57       84.35       84.12       83.89       83.65       83.41       83.16       82.90    
        82.64       82.37       82.10       81.82       81.54       81.26       80.97       80.67       80.38       80.08    
        79.79       79.49       79.19       78.89       78.60       78.30       78.01       77.72       77.42       77.13    
        76.83       76.54       76.23       75.93       75.62       75.30       74.98       74.65       74.31       73.96    
        73.61       73.25       72.88       72.50       72.11       71.71       71.30       70.88       70.44       70.00    
  40    85.00       84.79       84.58       84.36       84.13       83.90       83.66       83.42       83.17       82.92    
        82.66       82.40       82.13       81.86       81.58       81.30       81.02       80.73       80.44       80.14    
        79.85       79.56       79.26       78.96       78.67       78.37       78.08       77.78       77.49       77.19    
        76.89       76.59       76.28       75.97       75.66       75.34       75.01       74.68       74.34       73.99    
        73.63       73.27       72.89       72.51       72.12       71.71       71.30       70.88       70.45       70.00    
  41    85.00       84.79       84.58       84.36       84.14       83.91       83.68       83.44       83.19       82.94    
        82.69       82.43       82.16       81.89       81.62       81.34       81.06       80.77       80.49       80.20    
        79.91       79.61       79.32       79.03       78.73       78.44       78.14       77.84       77.55       77.25    
        76.94       76.64       76.33       76.01       75.70       75.37       75.04       74.70       74.36       74.01    
        73.65       73.28       72.91       72.52       72.13       71.72       71.31       70.88       70.45       70.00    
  42    85.00       84.79       84.58       84.37       84.15       83.92       83.69       83.45       83.21       82.96    
        82.71       82.45       82.19       81.92       81.65       81.38       81.10       80.82       80.53       80.24    
        79.96       79.67       79.37       79.08       78.79       78.49       78.19       77.90       77.60       77.29    
        76.99       76.68       76.37       76.05       75.73       75.40       75.07       74.73       74.38       74.03    
        73.67       73.30       72.92       72.53       72.13       71.73       71.31       70.89       70.45       70.00    
  43    85.00       84.80       84.59       84.37       84.15       83.93       83.70       83.46       83.22       82.98    
        82.73       82.47       82.21       81.95       81.68       81.41       81.13       80.85       80.57       80.29    
        80.00       79.71       79.42       79.13       78.83       78.54       78.24       77.94       77.64       77.34    
        77.03       76.72       76.40       76.08       75.76       75.43       75.09       74.75       74.40       74.05    
        73.68       73.31       72.93       72.54       72.14       71.74       71.32       70.89       70.45       70.00    
  44    85.00       84.80       84.59       84.38       84.16       83.93       83.71       83.47       83.23       82.99    
        82.74       82.49       82.23       81.97       81.70       81.43       81.16       80.88       80.60       80.32    
        80.04       79.75       79.46       79.17       78.87       78.58       78.28       77.98       77.68       77.37    
        77.06       76.75       76.43       76.11       75.78       75.45       75.11       74.77       74.42       74.06    
        73.70       73.32       72.94       72.55       72.15       71.74       71.32       70.89       70.45       70.00    
  45    85.00       84.80       84.59       84.38       84.16       83.94       83.71       83.48       83.24       83.00    
        82.76       82.50       82.25       81.99       81.72       81.46       81.18       80.91       80.63       80.35    
        80.07       79.78       79.49       79.20       78.91       78.61       78.31       78.01       77.71       77.40    
        77.09       76.78       76.46       76.13       75.81       75.47       75.13       74.79       74.43       74.07    
        73.71       73.33       72.95       72.56       72.16       71.75       71.33       70.89       70.45       70.00    
  46    85.00       84.80       84.59       84.38       84.17       83.95       83.72       83.49       83.25       83.01    
        82.77       82.52       82.26       82.00       81.74       81.48       81.21       80.93       80.66       80.38    
        80.09       79.81       79.52       79.23       78.93       78.64       78.34       78.04       77.73       77.43    
        77.11       76.80       76.48       76.15       75.82       75.49       75.15       74.80       74.45       74.09    
        73.72       73.34       72.96       72.56       72.16       71.75       71.33       70.90       70.45       70.00    
  47    85.00       84.80       84.60       84.39       84.17       83.95       83.73       83.50       83.26       83.02    
        82.78       82.53       82.27       82.02       81.76       81.49       81.22       80.95       80.67       80.39    
        80.11       79.83       79.54       79.25       78.96       78.66       78.36       78.06       77.75       77.45    
        77.13       76.82       76.50       76.17       75.84       75.50       75.16       74.81       74.46       74.09    
        73.72       73.35       72.96       72.57       72.17       71.75       71.33       70.90       70.45       70.00    
  48    85.00       84.80       84.60       84.39       84.17       83.95       83.73       83.50       83.27       83.03    
        82.78       82.54       82.28       82.03       81.77       81.50       81.23       80.96       80.69       80.41    
        80.13       79.84       79.56       79.27       78.97       78.68       78.38       78.07       77.77       77.46    
        77.15       76.83       76.51       76.18       75.85       75.51       75.17       74.82       74.46       74.10    
        73.73       73.35       72.97       72.57       72.17       71.76       71.33       70.90       70.46       70.00    
  49    85.00       84.80       84.60       84.39       84.17       83.96       83.73       83.50       83.27       83.03    
        82.79       82.54       82.29       82.03       81.77       81.51       81.24       80.97       80.70       80.42    
        80.14       79.85       79.57       79.28       78.98       78.69       78.39       78.09       77.78       77.47    
        77.16       76.84       76.52       76.19       75.86       75.52       75.18       74.83       74.47       74.11    
        73.73       73.36       72.97       72.57       72.17       71.76       71.33       70.90       70.46       70.00    
  50    85.00       84.80       84.60       84.39       84.18       83.96       83.73       83.50       83.27       83.03    
        82.79       82.54       82.29       82.04       81.78       81.51       81.25       80.98       80.70       80.42    
        80.14       79.86       79.57       79.28       78.99       78.69       78.39       78.09       77.78       77.47    
        77.16       76.84       76.52       76.19       75.86       75.52       75.18       74.83       74.47       74.11    
        73.74       73.36       72.97       72.58       72.17       71.76       71.33       70.90       70.46       70.00    
1
              HEAD IN LAYER   3 AT END OF TIME STEP   1 IN STRESS PERIOD    1
  ---------------------------------------------------------------------------

            1           2           3           4           5           6           7           8           9          10
           11          12          13          14          15          16          17          18          19          20
           21          22          23          24          25          26          27          28          29          30
           31          32          33          34          35          36          37          38          39          40
           41          42          43          44          45          46          47          48          49          50
 ........................................................................................................................
   1    85.00       84.71       84.42       84.13       83.84       83.55       83.25       82.96       82.66       82.36    
        82.06       81.76       81.46       81.15       80.85       80.55       80.24       79.93       79.63       79.32    
        79.02       78.71       78.41       78.11       77.80       77.50       77.20       76.90       76.60       76.31    
        76.01       75.71       75.41       75.11       74.80       74.50       74.19       73.89       73.58       73.26    
        72.95       72.63       72.31       71.98       71.66       71.33       71.00       70.67       70.33       70.00    
   2    85.00       84.71       84.42       84.13       83.84       83.54       83.25       82.95       82.66       82.36    
        82.06       81.76       81.45       81.15       80.84       80.54       80.23       79.93       79.62       79.31    
        79.01       78.70       78.40       78.10       77.79       77.49       77.19       76.89       76.60       76.30    
        76.00       75.70       75.40       75.10       74.80       74.49       74.19       73.88       73.57       73.26    
        72.94       72.63       72.31       71.98       71.66       71.33       71.00       70.67       70.33       70.00    
   3    85.00       84.71       84.42       84.13       83.83       83.54       83.24       82.95       82.65       82.35    
        82.05       81.75       81.44       81.14       80.83       80.52       80.22       79.91       79.60       79.30    
        78.99       78.68       78.38       78.08       77.78       77.47       77.17       76.88       76.58       76.28    
        75.98       75.68       75.39       75.09       74.79       74.48       74.18       73.87       73.56       73.25    
        72.94       72.62       72.30       71.98       71.65       71.33       71.00       70.66       70.33       70.00    
   4    85.00       84.71       84.42       84.12       83.83       83.53       83.24       82.94       82.64       82.34    
        82.04       81.73       81.43       81.12       80.81       80.50       80.20       79.89       79.58       79.27    
        78.96       78.66       78.35       78.05       77.75       77.44       77.15       76.85       76.55       76.25    
        75.96       75.66       75.36       75.07       74.77       74.47       74.16       73.86       73.55       73.24    
        72.93       72.61       72.29       71.97       71.65       71.32       70.99       70.66       70.33       70.00    
   5    85.00       84.71       84.41       84.12       83.82       83.53       83.23       82.93       82.63       82.32    
        82.02       81.71       81.41       81.10       80.79       80.48       80.17       79.85       79.54       79.23    
        78.93       78.62       78.31       78.01       77.70       77.40       77.11       76.81       76.51       76.22    
        75.92       75.63       75.33       75.04       74.74       74.44       74.14       73.84       73.53       73.23    
        72.91       72.60       72.28       71.96       71.64       71.32       70.99       70.66       70.33       70.00    
   6    85.00       84.70       84.41       84.11       83.82       83.52       83.22       82.92       82.61       82.31    
        82.00       81.69       81.38       81.07       80.76       80.44       80.13       79.81       79.50       79.19    
        78.88       78.57       78.26       77.96       77.65       77.35       77.05       76.76       76.46       76.17    
        75.88       75.59       75.30       75.00       74.71       74.41       74.12       73.82       73.51       73.21    
        72.90       72.59       72.27       71.95       71.63       71.31       70.98       70.66       70.33       70.00    
   7    85.00       84.70       84.41       84.11       83.81       83.51       83.20       82.90       82.59       82.28    
        81.97       81.66       81.35       81.03       80.72       80.40       80.08       79.77       79.45       79.13    
        78.82       78.51       78.20       77.89       77.59       77.29       76.99       76.70       76.41       76.12    
        75.83       75.54       75.25       74.96       74.67       74.38       74.08       73.79       73.49       73.18    
        72.88       72.57       72.26       71.94       71.62       71.30       70.98       70.65       70.33       70.00    
   8    85.00       84.70       84.40       84.10       83.80       83.49       83.19       82.88       82.57       82.26    
        81.95       81.63       81.31       80.99       80.67       80.35       80.03       79.71       79.39       79.07    
        78.75       78.44       78.13       77.82       77.51       77.21       76.92       76.63       76.34       76.05    
        75.76       75.48       75.20       74.91       74.62       74.34       74.05       73.75       73.46       73.16    
        72.86       72.55       72.24       71.93       71.61       71.29       70.97       70.65       70.32       70.00    
   9    85.00       84.70       84.39       84.09       83.79       83.48       83.17       82.86       82.55       82.23    
        81.91       81.59       81.27       80.95       80.62       80.29       79.97       79.64       79.31       78.99    
        78.67       78.35       78.04       77.73       77.42       77.13       76.83       76.54       76.26       75.97    
[...]
        72.42       72.18       71.93       71.68       71.41       71.14       70.86       70.57       70.29       70.00    
  23    85.00       84.66       84.31       83.96       83.61       83.25       82.89       82.52       82.13       81.74    
        81.33       80.90       80.45       79.98       79.48       78.95       78.39       77.77       77.10       76.36    
        75.54       74.61       73.60       72.57       71.81       71.96       72.39       72.80       73.12       73.34    
        73.48       73.54       73.55       73.51       73.43       73.32       73.18       73.01       72.83       72.62    
        72.40       72.17       71.92       71.67       71.40       71.13       70.85       70.57       70.29       70.00    
  24    85.00       84.66       84.31       83.96       83.61       83.25       82.88       82.51       82.12       81.73    
        81.31       80.88       80.43       79.95       79.45       78.91       78.33       77.69       76.99       76.20    
        75.28       74.20       72.87       71.23       69.57       70.63       71.66       72.39       72.87       73.18    
        73.36       73.46       73.49       73.46       73.40       73.29       73.16       73.00       72.81       72.61    
        72.39       72.16       71.92       71.66       71.40       71.13       70.85       70.57       70.29       70.00    
  25    85.00       84.66       84.31       83.96       83.61       83.25       82.88       82.51       82.12       81.72    
        81.31       80.88       80.42       79.95       79.44       78.90       78.31       77.67       76.95       76.14    
        75.18       74.01       72.41       69.88       64.59       69.27       71.20       72.19       72.77       73.12    
        73.33       73.43       73.47       73.45       73.38       73.28       73.15       72.99       72.81       72.61    
        72.39       72.16       71.92       71.66       71.40       71.13       70.85       70.57       70.29       70.00    
  26    85.00       84.66       84.31       83.96       83.61       83.25       82.88       82.51       82.12       81.73    
        81.31       80.88       80.43       79.96       79.45       78.91       78.33       77.70       76.99       76.20    
        75.29       74.20       72.87       71.23       69.58       70.63       71.66       72.39       72.87       73.18    
        73.37       73.46       73.49       73.47       73.40       73.29       73.16       73.00       72.81       72.61    
        72.40       72.16       71.92       71.66       71.40       71.13       70.85       70.57       70.29       70.00    
  27    85.00       84.66       84.31       83.96       83.61       83.26       82.89       82.52       82.13       81.74    
        81.33       80.90       80.45       79.98       79.49       78.96       78.39       77.78       77.11       76.37    
        75.54       74.62       73.60       72.57       71.81       71.97       72.39       72.80       73.12       73.34    
        73.48       73.54       73.55       73.51       73.43       73.32       73.18       73.02       72.83       72.63    
        72.41       72.17       71.93       71.67       71.41       71.13       70.86       70.57       70.29       70.00    
  28    85.00       84.66       84.32       83.97       83.62       83.26       82.90       82.53       82.15       81.76    
        81.35       80.93       80.49       80.03       79.54       79.03       78.48       77.90       77.27       76.60    
        75.87       75.10       74.32       73.61       73.11       73.00       73.11       73.29       73.45       73.57    
        73.65       73.67       73.65       73.58       73.49       73.37       73.22       73.04       72.85       72.65    
        72.42       72.19       71.94       71.68       71.41       71.14       70.86       70.58       70.29       70.00    
  29    85.00       84.66       84.32       83.98       83.63       83.27       82.92       82.55       82.17       81.78    
        81.38       80.97       80.54       80.09       79.62       79.12       78.60       78.05       77.47       76.86    
        76.22       75.57       74.95       74.40       74.00       73.80       73.74       73.76       73.81       73.84    
        73.84       73.82       73.76       73.68       73.56       73.42       73.26       73.08       72.89       72.67    
        72.44       72.20       71.95       71.69       71.42       71.15       70.86       70.58       70.29       70.00    
  30    85.00       84.66       84.32       83.98       83.64       83.29       82.93       82.57       82.20       81.82    
        81.42       81.02       80.59       80.16       79.70       79.23       78.73       78.22       77.68       77.13    
        76.56       76.01       75.48       75.02       74.66       74.42       74.27       74.20       74.15       74.11    
        74.05       73.98       73.89       73.78       73.65       73.49       73.32       73.13       72.92       72.70    
        72.47       72.23       71.97       71.71       71.43       71.15       70.87       70.58       70.29       70.00    
  31    85.00       84.67       84.33       83.99       83.65       83.30       82.95       82.59       82.23       81.85    
        81.47       81.07       80.66       80.23       79.80       79.34       78.87       78.39       77.89       77.39    
        76.88       76.39       75.93       75.52       75.18       74.92       74.72       74.58       74.47       74.37    
        74.27       74.16       74.04       73.90       73.74       73.57       73.39       73.18       72.97       72.74    
        72.50       72.25       71.99       71.72       71.45       71.16       70.88       70.59       70.29       70.00    
  32    85.00       84.67       84.34       84.00       83.66       83.32       82.97       82.62       82.26       81.89    
        81.51       81.13       80.73       80.32       79.89       79.46       79.02       78.56       78.10       77.64    
        77.18       76.73       76.31       75.93       75.60       75.33       75.11       74.92       74.76       74.62    
        74.47       74.33       74.18       74.02       73.84       73.66       73.45       73.24       73.02       72.78    
        72.53       72.28       72.01       71.74       71.46       71.18       70.89       70.59       70.30       70.00    
  33    85.00       84.67       84.34       84.01       83.68       83.34       83.00       82.65       82.29       81.93    
        81.56       81.19       80.80       80.40       79.99       79.58       79.16       78.73       78.29       77.86    
        77.44       77.03       76.64       76.28       75.96       75.68       75.43       75.22       75.02       74.84    
        74.67       74.50       74.32       74.14       73.94       73.74       73.53       73.30       73.07       72.82    
        72.57       72.31       72.04       71.76       71.48       71.19       70.90       70.60       70.30       70.00    
  34    85.00       84.68       84.35       84.02       83.69       83.36       83.02       82.68       82.33       81.98    
        81.61       81.25       80.87       80.49       80.09       79.70       79.29       78.88       78.48       78.07    
        77.67       77.29       76.92       76.57       76.26       75.97       75.71       75.48       75.26       75.05    
        74.85       74.66       74.46       74.25       74.04       73.83       73.60       73.36       73.12       72.87    
        72.61       72.34       72.06       71.78       71.49       71.20       70.91       70.61       70.30       70.00    
  35    85.00       84.68       84.36       84.03       83.71       83.38       83.05       82.71       82.37       82.02    
        81.67       81.31       80.94       80.57       80.19       79.81       79.42       79.03       78.64       78.26    
        77.88       77.51       77.16       76.83       76.51       76.22       75.95       75.70       75.47       75.24    
        75.02       74.80       74.59       74.36       74.14       73.91       73.67       73.43       73.17       72.91    
        72.65       72.37       72.09       71.80       71.51       71.22       70.92       70.61       70.31       70.00    
  36    85.00       84.68       84.37       84.05       83.72       83.40       83.07       82.74       82.40       82.06    
        81.72       81.37       81.01       80.65       80.28       79.91       79.54       79.17       78.80       78.43    
        78.06       77.71       77.37       77.04       76.73       76.44       76.16       75.90       75.65       75.41    
        75.17       74.94       74.71       74.47       74.23       73.99       73.74       73.49       73.23       72.96    
        72.68       72.40       72.12       71.83       71.53       71.23       70.93       70.62       70.31       70.00    
  37    85.00       84.69       84.37       84.06       83.74       83.42       83.10       82.77       82.44       82.11    
        81.77       81.42       81.08       80.72       80.37       80.01       79.65       79.29       78.93       78.58    
        78.23       77.89       77.55       77.23       76.93       76.63       76.35       76.08       75.81       75.56    
        75.31       75.06       74.82       74.57       74.32       74.07       73.81       73.55       73.28       73.00    
        72.72       72.44       72.14       71.85       71.55       71.24       70.94       70.63       70.31       70.00    
  38    85.00       84.69       84.38       84.07       83.76       83.44       83.12       82.80       82.48       82.15    
        81.81       81.48       81.14       80.80       80.45       80.10       79.75       79.41       79.06       78.71    
        78.37       78.04       77.71       77.40       77.09       76.79       76.51       76.23       75.96       75.70    
        75.44       75.18       74.92       74.66       74.40       74.14       73.87       73.60       73.32       73.04    
        72.76       72.47       72.17       71.87       71.57       71.26       70.95       70.63       70.32       70.00    
  39    85.00       84.69       84.39       84.08       83.77       83.46       83.14       82.83       82.51       82.19    
        81.86       81.53       81.20       80.86       80.53       80.19       79.85       79.51       79.17       78.83    
        78.50       78.17       77.85       77.54       77.24       76.94       76.65       76.36       76.09       75.82    
        75.55       75.28       75.01       74.75       74.48       74.21       73.93       73.65       73.37       73.08    
        72.79       72.50       72.19       71.89       71.58       71.27       70.96       70.64       70.32       70.00    
  40    85.00       84.70       84.39       84.09       83.78       83.48       83.17       82.85       82.54       82.22    
        81.90       81.58       81.25       80.92       80.59       80.26       79.93       79.60       79.27       78.94    
        78.61       78.29       77.98       77.67       77.36       77.06       76.77       76.48       76.20       75.92    
        75.65       75.37       75.10       74.82       74.55       74.27       73.99       73.70       73.41       73.12    
        72.82       72.52       72.22       71.91       71.60       71.28       70.96       70.64       70.32       70.00    
  41    85.00       84.70       84.40       84.10       83.80       83.49       83.19       82.88       82.57       82.26    
        81.94       81.62       81.30       80.98       80.66       80.33       80.00       79.68       79.36       79.03    
        78.71       78.40       78.08       77.77       77.47       77.17       76.88       76.59       76.30       76.02    
        75.73       75.45       75.17       74.89       74.61       74.32       74.04       73.75       73.45       73.16    
        72.85       72.55       72.24       71.93       71.61       71.29       70.97       70.65       70.33       70.00    
  42    85.00       84.70       84.41       84.11       83.81       83.51       83.21       82.90       82.59       82.29    
        81.97       81.66       81.35       81.03       80.71       80.39       80.07       79.75       79.43       79.11    
        78.80       78.48       78.17       77.87       77.56       77.26       76.97       76.68       76.39       76.10    
        75.81       75.52       75.24       74.95       74.66       74.37       74.08       73.79       73.49       73.19    
        72.88       72.57       72.26       71.94       71.63       71.30       70.98       70.66       70.33       70.00    
  43    85.00       84.71       84.41       84.12       83.82       83.52       83.22       82.92       82.62       82.31    
        82.01       81.70       81.39       81.07       80.76       80.44       80.13       79.81       79.50       79.18    
        78.87       78.56       78.25       77.95       77.65       77.35       77.05       76.75       76.46       76.17    
        75.88       75.59       75.30       75.01       74.71       74.42       74.12       73.82       73.52       73.21    
        72.91       72.59       72.28       71.96       71.64       71.31       70.99       70.66       70.33       70.00    
  44    85.00       84.71       84.42       84.12       83.83       83.53       83.24       82.94       82.64       82.34    
        82.03       81.73       81.42       81.11       80.80       80.49       80.18       79.87       79.56       79.24    
        78.94       78.63       78.32       78.02       77.71       77.41       77.11       76.82       76.52       76.23    
        75.93       75.64       75.35       75.05       74.76       74.46       74.16       73.85       73.55       73.24    
        72.93       72.61       72.29       71.97       71.65       71.32       70.99       70.66       70.33       70.00    
  45    85.00       84.71       84.42       84.13       83.84       83.55       83.25       82.96       82.66       82.36    
        82.06       81.75       81.45       81.14       80.84       80.53       80.22       79.91       79.60       79.30    
        78.99       78.68       78.38       78.07       77.77       77.47       77.17       76.87       76.58       76.28    
        75.98       75.69       75.39       75.09       74.79       74.49       74.19       73.88       73.57       73.26    
        72.95       72.63       72.31       71.99       71.66       71.33       71.00       70.67       70.33       70.00    
  46    85.00       84.71       84.42       84.14       83.85       83.55       83.26       82.97       82.67       82.38    
        82.08       81.78       81.47       81.17       80.87       80.56       80.26       79.95       79.64       79.34    
        79.03       78.73       78.42       78.12       77.82       77.52       77.22       76.92       76.62       76.32    
        76.02       75.72       75.42       75.12       74.82       74.52       74.21       73.90       73.59       73.28    
        72.96       72.64       72.32       72.00       71.67       71.34       71.00       70.67       70.34       70.00    
  47    85.00       84.71       84.43       84.14       83.85       83.56       83.27       82.98       82.68       82.39    
        82.09       81.79       81.49       81.19       80.89       80.59       80.28       79.98       79.67       79.37    
        79.07       78.76       78.46       78.16       77.85       77.55       77.25       76.95       76.65       76.35    
        76.05       75.75       75.45       75.15       74.85       74.54       74.23       73.92       73.61       73.29    
        72.98       72.65       72.33       72.00       71.67       71.34       71.01       70.67       70.34       70.00    
  48    85.00       84.71       84.43       84.14       83.86       83.57       83.28       82.99       82.69       82.40    
        82.10       81.81       81.51       81.21       80.91       80.61       80.30       80.00       79.70       79.39    
        79.09       78.79       78.48       78.18       77.88       77.58       77.28       76.98       76.68       76.38    
        76.08       75.78       75.47       75.17       74.86       74.56       74.25       73.94       73.62       73.30    
        72.98       72.66       72.34       72.01       71.68       71.35       71.01       70.68       70.34       70.00    
  49    85.00       84.72       84.43       84.14       83.86       83.57       83.28       82.99       82.70       82.41    
        82.11       81.82       81.52       81.22       80.92       80.62       80.32       80.02       79.71       79.41    
        79.11       78.80       78.50       78.20       77.90       77.60       77.30       77.00       76.70       76.39    
        76.09       75.79       75.49       75.18       74.88       74.57       74.26       73.94       73.63       73.31    
        72.99       72.67       72.34       72.01       71.68       71.35       71.01       70.68       70.34       70.00    
  50    85.00       84.72       84.43       84.15       83.86       83.57       83.28       82.99       82.70       82.41    
        82.12       81.82       81.52       81.23       80.93       80.63       80.32       80.02       79.72       79.42    
        79.12       78.81       78.51       78.21       77.91       77.61       77.31       77.00       76.70       76.40    
        76.10       75.80       75.49       75.19       74.88       74.57       74.26       73.95       73.63       73.32    
        72.99       72.67       72.34       72.02       71.68       71.35       71.01       70.68       70.34       70.00    

 HEAD WILL BE SAVED ON UNIT   51 AT END OF TIME STEP    1, STRESS PERIOD    1
1
  VOLUMETRIC BUDGET FOR ENTIRE MODEL AT END OF TIME STEP    1, STRESS PERIOD   1
  ------------------------------------------------------------------------------

     CUMULATIVE VOLUMES      L**3       RATES FOR THIS TIME STEP      L**3/T
     ------------------                 ------------------------

           IN:                                      IN:
           ---                                      ---
             STORAGE =           0.0000               STORAGE =           0.0000
       CONSTANT HEAD =         688.2673         CONSTANT HEAD =         688.2673
               WELLS =           0.0000                 WELLS =           0.0000
            RECHARGE =        1200.0000              RECHARGE =        1200.0000

            TOTAL IN =        1888.2673              TOTAL IN =        1888.2673

          OUT:                                     OUT:
          ----                                     ----
             STORAGE =           0.0000               STORAGE =           0.0000
       CONSTANT HEAD =        1388.2673         CONSTANT HEAD =        1388.2673
               WELLS =         500.0000                 WELLS =         500.0000
            RECHARGE =           0.0000              RECHARGE =           0.0000

           TOTAL OUT =        1888.2673             TOTAL OUT =        1888.2673

            IN - OUT =           0.0000              IN - OUT =           0.0000

 PERCENT DISCREPANCY =           0.00     PERCENT DISCREPANCY =           0.00






         TIME SUMMARY AT END OF TIME STEP    1 IN STRESS PERIOD    1
                    SECONDS     MINUTES      HOURS       DAYS        YEARS
                    -----------------------------------------------------------
   TIME STEP LENGTH  86400.      1440.0      24.000      1.0000     2.73785E-03
 STRESS PERIOD TIME  86400.      1440.0      24.000      1.0000     2.73785E-03
         TOTAL TIME  86400.      1440.0      24.000      1.0000     2.73785E-03
1

 Run end date and time (yyyy/mm/dd hh:mm:ss): 2026/02/12 21:58:54
 Elapsed run time:  0.063 Seconds

