                                  MODFLOW-2005     
      U.S. GEOLOGICAL SURVEY MODULAR FINITE-DIFFERENCE GROUND-WATER FLOW MODEL
                            VERSION 1.12.00 2/3/2017

 LIST FILE: FarmModel_flopy.list
                         UNIT    2

 OPENING FarmModel_flopy.dis
 FILE TYPE:DIS   UNIT   11   STATUS:OLD    
 FORMAT:FORMATTED              ACCESS:SEQUENTIAL          

 OPENING FarmModel_flopy.bas
 FILE TYPE:BAS6   UNIT   13   STATUS:OLD    
 FORMAT:FORMATTED              ACCESS:SEQUENTIAL          

 OPENING FarmModel_flopy.bcf
 FILE TYPE:BCF6   UNIT   15   STATUS:OLD    
 FORMAT:FORMATTED              ACCESS:SEQUENTIAL          

 OPENING FarmModel_flopy.oc
 FILE TYPE:OC   UNIT   14   STATUS:OLD    
 FORMAT:FORMATTED              ACCESS:SEQUENTIAL          

 OPENING FarmModel_flopy.pcg
 FILE TYPE:PCG   UNIT   27   STATUS:OLD    
 FORMAT:FORMATTED              ACCESS:SEQUENTIAL          

 OPENING FarmModel_flopy.wel
 FILE TYPE:WEL   UNIT   20   STATUS:OLD    
 FORMAT:FORMATTED              ACCESS:SEQUENTIAL          

 OPENING FarmModel_flopy.rch
 FILE TYPE:RCH   UNIT   19   STATUS:OLD    
 FORMAT:FORMATTED              ACCESS:SEQUENTIAL          

 OPENING FarmModel_flopy.cbc
 FILE TYPE:DATA(BINARY)   UNIT   53   STATUS:REPLACE
 FORMAT:UNFORMATTED            ACCESS:STREAM              

 OPENING FarmModel_flopy.hds
 FILE TYPE:DATA(BINARY)   UNIT   51   STATUS:REPLACE
 FORMAT:UNFORMATTED            ACCESS:STREAM              

 BAS -- BASIC PACKAGE, VERSION 7, 5/2/2005 INPUT READ FROM UNIT   13
 
 MODFLOW was compiled using mixed precision
 Precision of REAL variables:           6
 Precision of DOUBLE PRECISION variables:          15

 DISCRETIZATION INPUT DATA READ FROM UNIT   11
 # DIS package for MODFLOW-2005 generated by Flopy 3.9.5
    1 LAYERS        30 ROWS        30 COLUMNS
    1 STRESS PERIOD(S) IN SIMULATION
 MODEL TIME UNIT IS DAYS
 MODEL LENGTH UNIT IS METERS
  Confining bed flag for each layer:
   0

                     DELR =   100.000    

                     DELC =   100.000    

 TOP ELEVATION OF LAYER 1 =   300.000    

   MODEL LAYER BOTTOM EL. =   0.00000     FOR LAYER   1


 STRESS PERIOD     LENGTH       TIME STEPS     MULTIPLIER FOR DELT    SS FLAG
 ----------------------------------------------------------------------------
        1         1.000000          1                    1.000         SS

 STEADY-STATE SIMULATION



 
 # BAS6 package for MODFLOW-2005 generated by Flopy 3.9.5                        
 THE FREE FORMAT OPTION HAS BEEN SELECTED



                     BOUNDARY ARRAY FOR LAYER   1
 READING ON UNIT   13 WITH FORMAT: (30I10)             

 AQUIFER HEAD WILL BE SET TO  -999.99     AT ALL NO-FLOW NODES (IBOUND=0).



                       INITIAL HEAD FOR LAYER   1
 READING ON UNIT   13 WITH FORMAT: (30E15.6)           
 # OC package for MODFLOW-2005 generated by Flopy 3.9.5

 OUTPUT CONTROL IS SPECIFIED ONLY AT TIME STEPS FOR WHICH OUTPUT IS DESIRED
 COMPACT CELL-BY-CELL BUDGET FILES WILL BE WRITTEN
 AUXILIARY DATA WILL BE SAVED IN CELL-BY-CELL BUDGET FILES
 HEAD PRINT FORMAT CODE IS   0    DRAWDOWN PRINT FORMAT CODE IS   0
 HEADS WILL BE SAVED ON UNIT   51    DRAWDOWNS WILL BE SAVED ON UNIT    0

 BCF -- BLOCK-CENTERED FLOW PACKAGE, VERSION 7, 5/2/2005
         INPUT READ FROM UNIT 15
 STEADY-STATE SIMULATION
 CELL-BY-CELL FLOWS WILL BE SAVED ON UNIT 53
 HEAD AT CELLS THAT CONVERT TO DRY= -0.10000E+31
 WETTING CAPABILITY IS NOT ACTIVE
      LAYER  LAYER-TYPE CODE     INTERBLOCK T
      --------------------------------------------
         1            3          0 -- HARMONIC    

 COLUMN TO ROW ANISOTROPY =   1.00000    



              HYD. COND. ALONG ROWS FOR LAYER   1
 READING ON UNIT   15 WITH FORMAT: (30E15.6)           

 WEL -- WELL PACKAGE, VERSION 7, 5/2/2005 INPUT READ FROM UNIT   20
 # WEL package for MODFLOW-2005 generated by Flopy 3.9.5
 No named parameters
 MAXIMUM OF      3 ACTIVE WELLS AT ONE TIME


     0 Well parameters

 RCH -- RECHARGE PACKAGE, VERSION 7, 5/2/2005 INPUT READ FROM UNIT   19
 # RCH package for MODFLOW-2005 generated by Flopy 3.9.5
 No named parameters
 OPTION 3 -- RECHARGE TO HIGHEST ACTIVE NODE IN EACH VERTICAL COLUMN
 CELL-BY-CELL FLOWS WILL BE SAVED ON UNIT   53


     0 Recharge parameters

 PCG -- CONJUGATE-GRADIENT SOLUTION PACKAGE, VERSION 7, 5/2/2005
 # PCG package for MODFLOW-2005 generated by Flopy 3.9.5
 MAXIMUM OF     50 CALLS OF SOLUTION ROUTINE
 MAXIMUM OF     30 INTERNAL ITERATIONS PER CALL TO SOLUTION ROUTINE
 MATRIX PRECONDITIONING TYPE :    1



                                    SOLUTION BY THE CONJUGATE-GRADIENT METHOD
                                   -------------------------------------------
                    MAXIMUM NUMBER OF CALLS TO PCG ROUTINE =       50
                        MAXIMUM ITERATIONS PER CALL TO PCG =       30
                               MATRIX PRECONDITIONING TYPE =        1
        RELAXATION FACTOR (ONLY USED WITH PRECOND. TYPE 1) =    0.10000E+01
 PARAMETER OF POLYNOMIAL PRECOND. = 2 (2) OR IS CALCULATED :        0
                         HEAD CHANGE CRITERION FOR CLOSURE =    0.10000E-04
                     RESIDUAL CHANGE CRITERION FOR CLOSURE =    0.10000E-04
            PCG HEAD AND RESIDUAL CHANGE PRINTOUT INTERVAL =      999
     PRINTING FROM SOLVER IS LIMITED(1) OR SUPPRESSED (>1) =        3
                            STEADY-STATE DAMPING PARAMETER =    0.10000E+01
                               TRANSIENT DAMPING PARAMETER =    0.10000E+01
1
                            STRESS PERIOD NO.    1, LENGTH =   1.000000    
                            -----------------------------------------------

                              NUMBER OF TIME STEPS =     1

                               MULTIPLIER FOR DELT =     1.000

                            INITIAL TIME STEP SIZE =   1.000000    

 WELL NO.  LAYER   ROW   COL   STRESS RATE         
 --------------------------------------------------
      1      1     20      6      -3.460    
      2      1     18     13      -52.30    
      3      1      8     13      -52.30    

      3 WELLS



                           RECHARGE
 READING ON UNIT   19 WITH FORMAT: (30E15.6)           
 
 SOLVING FOR HEAD 

 OUTPUT CONTROL FOR STRESS PERIOD    1   TIME STEP    1
    PRINT HEAD FOR ALL LAYERS
    PRINT BUDGET
    SAVE HEAD FOR ALL LAYERS
    SAVE BUDGET
 UBDSV2 SAVING "   CONSTANT HEAD" ON UNIT  53 AT TIME STEP  1, STRESS PERIOD   1
 UBDSV1 SAVING "FLOW RIGHT FACE " ON UNIT  53 AT TIME STEP  1, STRESS PERIOD   1
 UBDSV1 SAVING "FLOW FRONT FACE " ON UNIT  53 AT TIME STEP  1, STRESS PERIOD   1
 UBDSV3 SAVING "        RECHARGE" ON UNIT  53 AT TIME STEP  1, STRESS PERIOD   1
1
              HEAD IN LAYER   1 AT END OF TIME STEP   1 IN STRESS PERIOD    1
  ---------------------------------------------------------------------------

            1           2           3           4           5           6           7           8           9          10
           11          12          13          14          15          16          17          18          19          20
           21          22          23          24          25          26          27          28          29          30
 ........................................................................................................................
   1    395.0       393.8       392.6       391.4       390.2       388.9       387.6       386.3       385.0       383.6    
        382.2       380.7       379.2       377.7       376.1       374.4       372.8       371.1       369.3       367.6    
        365.8       364.0       362.3       360.5       358.7       357.0       355.2       353.5       351.7       350.0    
   2    395.0       393.8       392.6       391.4       390.2       388.9       387.6       386.3       385.0       383.6    
        382.2       380.7       379.2       377.7       376.1       374.4       372.8       371.1       369.3       367.6    
        365.8       364.0       362.3       360.5       358.7       357.0       355.2       353.5       351.7       350.0    
   3    395.0       393.8       392.6       391.4       390.2       388.9       387.6       386.3       385.0       383.6    
        382.2       380.7       379.2       377.6       376.1       374.4       372.7       371.0       369.3       367.6    
        365.8       364.0       362.3       360.5       358.7       357.0       355.2       353.5       351.7       350.0    
   4    395.0       393.8       392.6       391.4       390.2       388.9       387.6       386.3       385.0       383.6    
        382.2       380.7       379.2       377.6       376.0       374.4       372.7       371.0       369.3       367.6    
        365.8       364.0       362.3       360.5       358.7       357.0       355.2       353.5       351.7       350.0    
   5    395.0       393.8       392.6       391.4       390.1       388.9       387.6       386.3       384.9       383.6    
        382.1       380.7       379.2       377.6       376.0       374.4       372.7       371.0       369.3       367.5    
        365.8       364.0       362.3       360.5       358.7       357.0       355.2       353.5       351.7       350.0    
   6    395.0       393.8       392.6       391.4       390.1       388.9       387.6       386.3       384.9       383.5    
        382.1       380.6       379.1       377.6       376.0       374.3       372.7       371.0       369.3       367.5    
        365.8       364.0       362.3       360.5       358.7       357.0       355.2       353.5       351.7       350.0    
   7    395.0       393.8       392.6       391.3       390.1       388.8       387.5       386.2       384.9       383.5    
        382.0       380.6       379.1       377.5       375.9       374.3       372.7       371.0       369.3       367.5    
        365.8       364.0       362.3       360.5       358.7       357.0       355.2       353.5       351.7       350.0    
   8    395.0       393.8       392.6       391.3       390.1       388.8       387.5       386.2       384.8       383.4    
        382.0       380.5       379.0       377.5       375.9       374.3       372.6       371.0       369.3       367.5    
        365.8       364.0       362.3       360.5       358.8       357.0       355.2       353.5       351.7       350.0    
   9    395.0       393.8       392.5       391.3       390.0       388.8       387.5       386.1       384.8       383.4    
        381.9       380.5       379.0       377.4       375.9       374.3       372.6       370.9       369.2       367.5    
        365.8       364.0       362.3       360.5       358.8       357.0       355.3       353.5       351.8       350.0    
  10    395.0       393.8       392.5       391.3       390.0       388.7       387.4       386.1       384.7       383.3    
        381.9       380.4       378.9       377.4       375.8       374.2       372.6       370.9       369.2       367.5    
        365.8       364.1       362.3       360.6       358.8       357.0       355.3       353.5       351.8       350.0    
  11    395.0       393.8       392.5       391.2       390.0       388.7       387.3       386.0       384.6       383.2    
        381.8       380.3       378.9       377.3       375.8       374.2       372.6       370.9       369.2       367.5    
        365.8       364.1       362.4       360.6       358.8       357.1       355.3       353.5       351.8       350.0    
  12    395.0       393.7       392.5       391.2       389.9       388.6       387.3       385.9       384.5       383.1    
        381.7       380.3       378.8       377.3       375.7       374.2       372.5       370.9       369.3       367.6    
        365.9       364.1       362.4       360.7       358.9       357.1       355.3       353.6       351.8       350.0    
  13    395.0       393.7       392.4       391.1       389.8       388.5       387.2       385.8       384.5       383.1    
        381.6       380.2       378.7       377.2       375.7       374.1       372.5       370.9       369.3       367.6    
        365.9       364.2       362.5       360.7       358.9       357.2       355.4       353.6       351.8       350.0    
  14    395.0       393.7       392.4       391.1       389.8       388.4       387.1       385.7       384.4       383.0    
        381.5       380.1       378.6       377.2       375.6       374.1       372.5       370.9       369.3       367.6    
        366.0       364.3       362.5       360.8       359.0       357.2       355.4       353.6       351.8       350.0    
  15    395.0       393.7       392.4       391.0       389.7       388.4       387.0       385.6       384.3       382.9    
        381.4       380.0       378.6       377.1       375.6       374.1       372.5       370.9       369.3       367.7    
        366.0       364.3       362.6       360.9       359.1       357.3       355.5       353.7       351.8       350.0    
  16    395.0       393.7       392.3       391.0       389.6       388.3       386.9       385.5       384.1       382.7    
        381.3       379.9       378.5       377.0       375.5       374.0       372.5       371.0       369.4       367.8    
        366.1       364.4       362.7       361.0       359.2       357.4       355.6       353.7       351.9       350.0    
  17    395.0       393.6       392.3       390.9       389.5       388.1       386.8       385.4       384.0       382.6    
        381.2       379.8       378.4       377.0       375.5       374.0       372.5       371.0       369.4       367.8    
        366.2       364.5       362.8       361.1       359.3       357.5       355.7       353.8       351.9       350.0    
  18    395.0       393.6       392.2       390.8       389.4       388.0       386.6       385.3       383.9       382.5    
        381.1       379.7       378.3       376.9       375.5       374.0       372.5       371.0       369.5       367.9    
        366.3       364.6       362.9       361.2       359.4       357.6       355.7       353.9       351.9       350.0    
  19    395.0       393.6       392.1       390.7       389.3       387.9       386.5       385.1       383.7       382.4    
        381.0       379.6       378.2       376.8       375.4       374.0       372.6       371.1       369.6       368.0    
        366.4       364.8       363.1       361.4       359.6       357.7       355.9       353.9       352.0       350.0    
  20    395.0       393.5       392.1       390.6       389.2       387.8       386.3       385.0       383.6       382.2    
        380.9       379.5       378.2       376.8       375.4       374.0       372.6       371.1       369.7       368.1    
        366.6       364.9       363.3       361.5       359.7       357.9       356.0       354.0       352.0       350.0    
  21    395.0       393.5       392.0       390.5       389.0       387.6       386.2       384.8       383.4       382.1    
        380.7       379.4       378.1       376.7       375.4       374.0       372.6       371.2       369.7       368.2    
        366.7       365.1       363.4       361.7       359.9       358.0       356.1       354.1       352.1       350.0    
  22    395.0       393.4       391.9       390.4       388.9       387.5       386.0       384.6       383.3       381.9    
        380.6       379.3       378.0       376.7       375.4       374.0       372.7       371.3       369.8       368.4    
        366.8       365.3       363.6       361.9       360.1       358.2       356.3       354.2       352.1       350.0    
  23    395.0       393.4       391.8       390.3       388.8       387.3       385.9       384.5       383.1       381.8    
        380.5       379.2       377.9       376.6       375.3       374.0       372.7       371.4       370.0       368.5    
        367.0       365.4       363.8       362.1       360.3       358.4       356.4       354.3       352.2       350.0    
  24    395.0       393.4       391.7       390.2       388.6       387.2       385.7       384.3       383.0       381.7    
        380.4       379.1       377.9       376.6       375.3       374.1       372.8       371.4       370.1       368.6    
        367.2       365.6       364.0       362.3       360.5       358.6       356.6       354.5       352.3       350.0    
  25    395.0       393.3       391.7       390.0       388.5       387.0       385.6       384.2       382.9       381.6    
        380.3       379.0       377.8       376.6       375.3       374.1       372.8       371.5       370.2       368.8    
        367.3       365.8       364.2       362.5       360.7       358.8       356.7       354.6       352.3       350.0    
  26    395.0       393.3       391.6       389.9       388.4       386.9       385.4       384.1       382.7       381.4    
        380.2       379.0       377.7       376.5       375.3       374.1       372.8       371.6       370.3       368.9    
        367.5       366.0       364.4       362.7       360.9       358.9       356.9       354.7       352.4       350.0    
  27    395.0       393.2       391.5       389.9       388.3       386.8       385.3       384.0       382.6       381.4    
        380.1       378.9       377.7       376.5       375.3       374.1       372.9       371.6       370.3       369.0    
        367.6       366.1       364.5       362.8       361.0       359.1       357.0       354.8       352.4       350.0    
  28    395.0       393.2       391.5       389.8       388.2       386.7       385.2       383.9       382.6       381.3    
        380.1       378.8       377.7       376.5       375.3       374.1       372.9       371.7       370.4       369.1    
        367.7       366.2       364.7       363.0       361.2       359.2       357.1       354.9       352.5       350.0    
  29    395.0       393.2       391.4       389.8       388.1       386.6       385.2       383.8       382.5       381.2    
        380.0       378.8       377.6       376.5       375.3       374.1       372.9       371.7       370.4       369.1    
        367.8       366.3       364.7       363.1       361.3       359.3       357.2       354.9       352.5       350.0    
  30    395.0       393.2       391.4       389.7       388.1       386.6       385.2       383.8       382.5       381.2    
        380.0       378.8       377.6       376.5       375.3       374.1       372.9       371.7       370.5       369.2    
        367.8       366.3       364.8       363.1       361.3       359.4       357.2       355.0       352.5       350.0    

 HEAD WILL BE SAVED ON UNIT   51 AT END OF TIME STEP    1, STRESS PERIOD    1
1
  VOLUMETRIC BUDGET FOR ENTIRE MODEL AT END OF TIME STEP    1, STRESS PERIOD   1
  ------------------------------------------------------------------------------

     CUMULATIVE VOLUMES      L**3       RATES FOR THIS TIME STEP      L**3/T
     ------------------                 ------------------------

           IN:                                      IN:
           ---                                      ---
             STORAGE =           0.0000               STORAGE =           0.0000
       CONSTANT HEAD =       81672.5547         CONSTANT HEAD =       81672.5547
               WELLS =           0.0000                 WELLS =           0.0000
            RECHARGE =          16.0000              RECHARGE =          16.0000

            TOTAL IN =       81688.5547              TOTAL IN =       81688.5547

          OUT:                                     OUT:
          ----                                     ----
             STORAGE =           0.0000               STORAGE =           0.0000
       CONSTANT HEAD =       81580.4922         CONSTANT HEAD =       81580.4922
               WELLS =         108.0600                 WELLS =         108.0600
            RECHARGE =           0.0000              RECHARGE =           0.0000

           TOTAL OUT =       81688.5547             TOTAL OUT =       81688.5547

            IN - OUT =           0.0000              IN - OUT =           0.0000

 PERCENT DISCREPANCY =           0.00     PERCENT DISCREPANCY =           0.00






         TIME SUMMARY AT END OF TIME STEP    1 IN STRESS PERIOD    1
                    SECONDS     MINUTES      HOURS       DAYS        YEARS
                    -----------------------------------------------------------
   TIME STEP LENGTH  86400.      1440.0      24.000      1.0000     2.73785E-03
 STRESS PERIOD TIME  86400.      1440.0      24.000      1.0000     2.73785E-03
         TOTAL TIME  86400.      1440.0      24.000      1.0000     2.73785E-03
1

 Run end date and time (yyyy/mm/dd hh:mm:ss): 2026/02/11 15:33:44
 Elapsed run time:  0.023 Seconds

