                                  MODFLOW-2005     
      U.S. GEOLOGICAL SURVEY MODULAR FINITE-DIFFERENCE GROUND-WATER FLOW MODEL
                            VERSION 1.12.00 2/3/2017

 LIST FILE: FarmModel_flopy.list
                         UNIT    2

 OPENING FarmModel_flopy.dis
 FILE TYPE:DIS   UNIT   11   STATUS:OLD    
 FORMAT:FORMATTED              ACCESS:SEQUENTIAL          

 OPENING FarmModel_flopy.bas
 FILE TYPE:BAS6   UNIT   13   STATUS:OLD    
 FORMAT:FORMATTED              ACCESS:SEQUENTIAL          

 OPENING FarmModel_flopy.bcf
 FILE TYPE:BCF6   UNIT   15   STATUS:OLD    
 FORMAT:FORMATTED              ACCESS:SEQUENTIAL          

 OPENING FarmModel_flopy.oc
 FILE TYPE:OC   UNIT   14   STATUS:OLD    
 FORMAT:FORMATTED              ACCESS:SEQUENTIAL          

 OPENING FarmModel_flopy.pcg
 FILE TYPE:PCG   UNIT   27   STATUS:OLD    
 FORMAT:FORMATTED              ACCESS:SEQUENTIAL          

 OPENING FarmModel_flopy.wel
 FILE TYPE:WEL   UNIT   20   STATUS:OLD    
 FORMAT:FORMATTED              ACCESS:SEQUENTIAL          

 OPENING FarmModel_flopy.cbc
 FILE TYPE:DATA(BINARY)   UNIT   53   STATUS:REPLACE
 FORMAT:UNFORMATTED            ACCESS:STREAM              

 OPENING FarmModel_flopy.hds
 FILE TYPE:DATA(BINARY)   UNIT   51   STATUS:REPLACE
 FORMAT:UNFORMATTED            ACCESS:STREAM              

 BAS -- BASIC PACKAGE, VERSION 7, 5/2/2005 INPUT READ FROM UNIT   13
 
 MODFLOW was compiled using mixed precision
 Precision of REAL variables:           6
 Precision of DOUBLE PRECISION variables:          15

 DISCRETIZATION INPUT DATA READ FROM UNIT   11
 # DIS package for MODFLOW-2005 generated by Flopy 3.9.5
    1 LAYERS        30 ROWS        30 COLUMNS
    1 STRESS PERIOD(S) IN SIMULATION
 MODEL TIME UNIT IS DAYS
 MODEL LENGTH UNIT IS METERS
  Confining bed flag for each layer:
   0

                     DELR =   100.000    

                     DELC =   100.000    

 TOP ELEVATION OF LAYER 1 =   200.000    

   MODEL LAYER BOTTOM EL. =   0.00000     FOR LAYER   1


 STRESS PERIOD     LENGTH       TIME STEPS     MULTIPLIER FOR DELT    SS FLAG
 ----------------------------------------------------------------------------
        1         1.000000          1                    1.000         SS

 STEADY-STATE SIMULATION



 
 # BAS6 package for MODFLOW-2005 generated by Flopy 3.9.5                        
 THE FREE FORMAT OPTION HAS BEEN SELECTED



                     BOUNDARY ARRAY FOR LAYER   1
 READING ON UNIT   13 WITH FORMAT: (30I10)             

 AQUIFER HEAD WILL BE SET TO  -999.99     AT ALL NO-FLOW NODES (IBOUND=0).



                       INITIAL HEAD FOR LAYER   1
 READING ON UNIT   13 WITH FORMAT: (30E15.6)           
 # OC package for MODFLOW-2005 generated by Flopy 3.9.5

 OUTPUT CONTROL IS SPECIFIED ONLY AT TIME STEPS FOR WHICH OUTPUT IS DESIRED
 COMPACT CELL-BY-CELL BUDGET FILES WILL BE WRITTEN
 AUXILIARY DATA WILL BE SAVED IN CELL-BY-CELL BUDGET FILES
 HEAD PRINT FORMAT CODE IS   0    DRAWDOWN PRINT FORMAT CODE IS   0
 HEADS WILL BE SAVED ON UNIT   51    DRAWDOWNS WILL BE SAVED ON UNIT    0

 BCF -- BLOCK-CENTERED FLOW PACKAGE, VERSION 7, 5/2/2005
         INPUT READ FROM UNIT 15
 STEADY-STATE SIMULATION
 CELL-BY-CELL FLOWS WILL BE SAVED ON UNIT 53
 HEAD AT CELLS THAT CONVERT TO DRY= -0.10000E+31
 WETTING CAPABILITY IS NOT ACTIVE
      LAYER  LAYER-TYPE CODE     INTERBLOCK T
      --------------------------------------------
         1            3          0 -- HARMONIC    

 COLUMN TO ROW ANISOTROPY =   1.00000    



              HYD. COND. ALONG ROWS FOR LAYER   1
 READING ON UNIT   15 WITH FORMAT: (30E15.6)           

 WEL -- WELL PACKAGE, VERSION 7, 5/2/2005 INPUT READ FROM UNIT   20
 # WEL package for MODFLOW-2005 generated by Flopy 3.9.5
 No named parameters
 MAXIMUM OF      3 ACTIVE WELLS AT ONE TIME


     0 Well parameters

 PCG -- CONJUGATE-GRADIENT SOLUTION PACKAGE, VERSION 7, 5/2/2005
 # PCG package for MODFLOW-2005 generated by Flopy 3.9.5
 MAXIMUM OF     50 CALLS OF SOLUTION ROUTINE
 MAXIMUM OF     30 INTERNAL ITERATIONS PER CALL TO SOLUTION ROUTINE
 MATRIX PRECONDITIONING TYPE :    1



                                    SOLUTION BY THE CONJUGATE-GRADIENT METHOD
                                   -------------------------------------------
                    MAXIMUM NUMBER OF CALLS TO PCG ROUTINE =       50
                        MAXIMUM ITERATIONS PER CALL TO PCG =       30
                               MATRIX PRECONDITIONING TYPE =        1
        RELAXATION FACTOR (ONLY USED WITH PRECOND. TYPE 1) =    0.10000E+01
 PARAMETER OF POLYNOMIAL PRECOND. = 2 (2) OR IS CALCULATED :        0
                         HEAD CHANGE CRITERION FOR CLOSURE =    0.10000E-04
                     RESIDUAL CHANGE CRITERION FOR CLOSURE =    0.10000E-04
            PCG HEAD AND RESIDUAL CHANGE PRINTOUT INTERVAL =      999
     PRINTING FROM SOLVER IS LIMITED(1) OR SUPPRESSED (>1) =        3
                            STEADY-STATE DAMPING PARAMETER =    0.10000E+01
                               TRANSIENT DAMPING PARAMETER =    0.10000E+01
1
                            STRESS PERIOD NO.    1, LENGTH =   1.000000    
                            -----------------------------------------------

                              NUMBER OF TIME STEPS =     1

                               MULTIPLIER FOR DELT =     1.000

                            INITIAL TIME STEP SIZE =   1.000000    

 WELL NO.  LAYER   ROW   COL   STRESS RATE         
 --------------------------------------------------
      1      1     20      6      -346.0    
      2      1     20     16      -5230.    
      3      1      8     16      -5230.    

      3 WELLS
 
 SOLVING FOR HEAD 

 CELL CONVERSIONS FOR ITER.=  2  LAYER=  1  STEP=  1  PERIOD=  1   (ROW,COL)
    DRY(  1, 12)   DRY(  1, 13)   DRY(  1, 14)   DRY(  1, 15)   DRY(  1, 16)   
    DRY(  1, 17)   DRY(  1, 18)   DRY(  1, 19)   DRY(  1, 20)   DRY(  2, 12)   
    DRY(  2, 13)   DRY(  2, 14)   DRY(  2, 15)   DRY(  2, 16)   DRY(  2, 17)   
    DRY(  2, 18)   DRY(  2, 19)   DRY(  2, 20)   DRY(  3, 12)   DRY(  3, 13)   
    DRY(  3, 14)   DRY(  3, 15)   DRY(  3, 16)   DRY(  3, 17)   DRY(  3, 18)   
    DRY(  3, 19)   DRY(  3, 20)   DRY(  3, 21)   DRY(  4, 12)   DRY(  4, 13)   
    DRY(  4, 14)   DRY(  4, 15)   DRY(  4, 16)   DRY(  4, 17)   DRY(  4, 18)   
    DRY(  4, 19)   DRY(  4, 20)   DRY(  4, 21)   DRY(  5, 11)   DRY(  5, 12)   
    DRY(  5, 13)   DRY(  5, 14)   DRY(  5, 15)   DRY(  5, 16)   DRY(  5, 17)   
    DRY(  5, 18)   DRY(  5, 19)   DRY(  5, 20)   DRY(  5, 21)   DRY(  6, 11)   
    DRY(  6, 12)   DRY(  6, 13)   DRY(  6, 14)   DRY(  6, 15)   DRY(  6, 16)   
    DRY(  6, 17)   DRY(  6, 18)   DRY(  6, 19)   DRY(  6, 20)   DRY(  6, 21)   
    DRY(  7, 11)   DRY(  7, 12)   DRY(  7, 13)   DRY(  7, 14)   DRY(  7, 15)   
    DRY(  7, 16)   DRY(  7, 17)   DRY(  7, 18)   DRY(  7, 19)   DRY(  7, 20)   
    DRY(  7, 21)   DRY(  7, 22)   DRY(  8, 10)   DRY(  8, 11)   DRY(  8, 12)   
    DRY(  8, 13)   DRY(  8, 14)   DRY(  8, 15)   DRY(  8, 16)   DRY(  8, 17)   
    DRY(  8, 18)   DRY(  8, 19)   DRY(  8, 20)   DRY(  8, 21)   DRY(  8, 22)   
    DRY(  9, 10)   DRY(  9, 11)   DRY(  9, 12)   DRY(  9, 13)   DRY(  9, 14)   
    DRY(  9, 15)   DRY(  9, 16)   DRY(  9, 17)   DRY(  9, 18)   DRY(  9, 19)   
    DRY(  9, 20)   DRY(  9, 21)   DRY(  9, 22)   DRY( 10, 10)   DRY( 10, 11)   
    DRY( 10, 12)   DRY( 10, 13)   DRY( 10, 14)   DRY( 10, 15)   DRY( 10, 16)   
    DRY( 10, 17)   DRY( 10, 18)   DRY( 10, 19)   DRY( 10, 20)   DRY( 10, 21)   
    DRY( 10, 22)   DRY( 11, 10)   DRY( 11, 11)   DRY( 11, 12)   DRY( 11, 13)   
    DRY( 11, 14)   DRY( 11, 15)   DRY( 11, 16)   DRY( 11, 17)   DRY( 11, 18)   
    DRY( 11, 19)   DRY( 11, 20)   DRY( 11, 21)   DRY( 11, 22)   DRY( 12, 10)   
    DRY( 12, 11)   DRY( 12, 12)   DRY( 12, 13)   DRY( 12, 14)   DRY( 12, 15)   
    DRY( 12, 16)   DRY( 12, 17)   DRY( 12, 18)   DRY( 12, 19)   DRY( 12, 20)   
    DRY( 12, 21)   DRY( 12, 22)   DRY( 13, 10)   DRY( 13, 11)   DRY( 13, 12)   
    DRY( 13, 13)   DRY( 13, 14)   DRY( 13, 15)   DRY( 13, 16)   DRY( 13, 17)   
    DRY( 13, 18)   DRY( 13, 19)   DRY( 13, 20)   DRY( 13, 21)   DRY( 13, 22)   
    DRY( 13, 23)   DRY( 14,  9)   DRY( 14, 10)   DRY( 14, 11)   DRY( 14, 12)   
    DRY( 14, 13)   DRY( 14, 14)   DRY( 14, 15)   DRY( 14, 16)   DRY( 14, 17)   
    DRY( 14, 18)   DRY( 14, 19)   DRY( 14, 20)   DRY( 14, 21)   DRY( 14, 22)   
    DRY( 14, 23)   DRY( 15,  9)   DRY( 15, 10)   DRY( 15, 11)   DRY( 15, 12)   
    DRY( 15, 13)   DRY( 15, 14)   DRY( 15, 15)   DRY( 15, 16)   DRY( 15, 17)   
    DRY( 15, 18)   DRY( 15, 19)   DRY( 15, 20)   DRY( 15, 21)   DRY( 15, 22)   
    DRY( 15, 23)   DRY( 16,  9)   DRY( 16, 10)   DRY( 16, 11)   DRY( 16, 12)   
    DRY( 16, 13)   DRY( 16, 14)   DRY( 16, 15)   DRY( 16, 16)   DRY( 16, 17)   
    DRY( 16, 18)   DRY( 16, 19)   DRY( 16, 20)   DRY( 16, 21)   DRY( 16, 22)   
    DRY( 16, 23)   DRY( 17,  8)   DRY( 17,  9)   DRY( 17, 10)   DRY( 17, 11)   
    DRY( 17, 12)   DRY( 17, 13)   DRY( 17, 14)   DRY( 17, 15)   DRY( 17, 16)   
    DRY( 17, 17)   DRY( 17, 18)   DRY( 17, 19)   DRY( 17, 20)   DRY( 17, 21)   
    DRY( 17, 22)   DRY( 17, 23)   DRY( 18,  8)   DRY( 18,  9)   DRY( 18, 10)   
    DRY( 18, 11)   DRY( 18, 12)   DRY( 18, 13)   DRY( 18, 14)   DRY( 18, 15)   
    DRY( 18, 16)   DRY( 18, 17)   DRY( 18, 18)   DRY( 18, 19)   DRY( 18, 20)   
    DRY( 18, 21)   DRY( 18, 22)   DRY( 18, 23)   DRY( 18, 24)   DRY( 19,  8)   
    DRY( 19,  9)   DRY( 19, 10)   DRY( 19, 11)   DRY( 19, 12)   DRY( 19, 13)   
    DRY( 19, 14)   DRY( 19, 15)   DRY( 19, 16)   DRY( 19, 17)   DRY( 19, 18)   
    DRY( 19, 19)   DRY( 19, 20)   DRY( 19, 21)   DRY( 19, 22)   DRY( 19, 23)   
    DRY( 19, 24)   DRY( 20,  7)   DRY( 20,  8)   DRY( 20,  9)   DRY( 20, 10)   
    DRY( 20, 11)   DRY( 20, 12)   DRY( 20, 13)   DRY( 20, 14)   DRY( 20, 15)   
    DRY( 20, 16)   DRY( 20, 17)   DRY( 20, 18)   DRY( 20, 19)   DRY( 20, 20)   
    DRY( 20, 21)   DRY( 20, 22)   DRY( 20, 23)   DRY( 20, 24)   DRY( 21,  7)   
    DRY( 21,  8)   DRY( 21,  9)   DRY( 21, 10)   DRY( 21, 11)   DRY( 21, 12)   
    DRY( 21, 13)   DRY( 21, 14)   DRY( 21, 15)   DRY( 21, 16)   DRY( 21, 17)   
    DRY( 21, 18)   DRY( 21, 19)   DRY( 21, 20)   DRY( 21, 21)   DRY( 21, 22)   
    DRY( 21, 23)   DRY( 21, 24)   DRY( 22,  7)   DRY( 22,  8)   DRY( 22,  9)   
    DRY( 22, 10)   DRY( 22, 11)   DRY( 22, 12)   DRY( 22, 13)   DRY( 22, 14)   
    DRY( 22, 15)   DRY( 22, 16)   DRY( 22, 17)   DRY( 22, 18)   DRY( 22, 19)   
    DRY( 22, 20)   DRY( 22, 21)   DRY( 22, 22)   DRY( 22, 23)   DRY( 22, 24)   
    DRY( 23,  7)   DRY( 23,  8)   DRY( 23,  9)   DRY( 23, 10)   DRY( 23, 11)   
    DRY( 23, 12)   DRY( 23, 13)   DRY( 23, 14)   DRY( 23, 15)   DRY( 23, 16)   
    DRY( 23, 17)   DRY( 23, 18)   DRY( 23, 19)   DRY( 23, 20)   DRY( 23, 21)   
    DRY( 23, 22)   DRY( 23, 23)   DRY( 23, 24)   DRY( 24,  7)   DRY( 24,  8)   
    DRY( 24,  9)   DRY( 24, 10)   DRY( 24, 11)   DRY( 24, 12)   DRY( 24, 13)   
    DRY( 24, 14)   DRY( 24, 15)   DRY( 24, 16)   DRY( 24, 17)   DRY( 24, 18)   
    DRY( 24, 19)   DRY( 24, 20)   DRY( 24, 21)   DRY( 24, 22)   DRY( 24, 23)   
    DRY( 24, 24)   DRY( 25,  8)   DRY( 25,  9)   DRY( 25, 10)   DRY( 25, 11)   
    DRY( 25, 12)   DRY( 25, 13)   DRY( 25, 14)   DRY( 25, 15)   DRY( 25, 16)   
    DRY( 25, 17)   DRY( 25, 18)   DRY( 25, 19)   DRY( 25, 20)   DRY( 25, 21)   
    DRY( 25, 22)   DRY( 25, 23)   DRY( 25, 24)   DRY( 26,  8)   DRY( 26,  9)   
    DRY( 26, 10)   DRY( 26, 11)   DRY( 26, 12)   DRY( 26, 13)   DRY( 26, 14)   
    DRY( 26, 15)   DRY( 26, 16)   DRY( 26, 17)   DRY( 26, 18)   DRY( 26, 19)   
    DRY( 26, 20)   DRY( 26, 21)   DRY( 26, 22)   DRY( 26, 23)   DRY( 26, 24)   
    DRY( 27,  8)   DRY( 27,  9)   DRY( 27, 10)   DRY( 27, 11)   DRY( 27, 12)   
    DRY( 27, 13)   DRY( 27, 14)   DRY( 27, 15)   DRY( 27, 16)   DRY( 27, 17)   
    DRY( 27, 18)   DRY( 27, 19)   DRY( 27, 20)   DRY( 27, 21)   DRY( 27, 22)   
    DRY( 27, 23)   DRY( 27, 24)   DRY( 28,  8)   DRY( 28,  9)   DRY( 28, 10)   
    DRY( 28, 11)   DRY( 28, 12)   DRY( 28, 13)   DRY( 28, 14)   DRY( 28, 15)   
    DRY( 28, 16)   DRY( 28, 17)   DRY( 28, 18)   DRY( 28, 19)   DRY( 28, 20)   
    DRY( 28, 21)   DRY( 28, 22)   DRY( 28, 23)   DRY( 28, 24)   DRY( 29,  8)   
    DRY( 29,  9)   DRY( 29, 10)   DRY( 29, 11)   DRY( 29, 12)   DRY( 29, 13)   
    DRY( 29, 14)   DRY( 29, 15)   DRY( 29, 16)   DRY( 29, 17)   DRY( 29, 18)   
    DRY( 29, 19)   DRY( 29, 20)   DRY( 29, 21)   DRY( 29, 22)   DRY( 29, 23)   
    DRY( 29, 24)   DRY( 30,  8)   DRY( 30,  9)   DRY( 30, 10)   DRY( 30, 11)   
    DRY( 30, 12)   DRY( 30, 13)   DRY( 30, 14)   DRY( 30, 15)   DRY( 30, 16)   
    DRY( 30, 17)   DRY( 30, 18)   DRY( 30, 19)   DRY( 30, 20)   DRY( 30, 21)   
    DRY( 30, 22)   DRY( 30, 23)   DRY( 30, 24)   

 OUTPUT CONTROL FOR STRESS PERIOD    1   TIME STEP    1
    PRINT HEAD FOR ALL LAYERS
    PRINT BUDGET
    SAVE HEAD FOR ALL LAYERS
    SAVE BUDGET
 UBDSV2 SAVING "   CONSTANT HEAD" ON UNIT  53 AT TIME STEP  1, STRESS PERIOD   1
 UBDSV1 SAVING "FLOW RIGHT FACE " ON UNIT  53 AT TIME STEP  1, STRESS PERIOD   1
 UBDSV1 SAVING "FLOW FRONT FACE " ON UNIT  53 AT TIME STEP  1, STRESS PERIOD   1
1
              HEAD IN LAYER   1 AT END OF TIME STEP   1 IN STRESS PERIOD    1
  ---------------------------------------------------------------------------

            1           2           3           4           5           6           7           8           9          10
           11          12          13          14          15          16          17          18          19          20
           21          22          23          24          25          26          27          28          29          30
 ........................................................................................................................
   1    219.0       219.0       219.0       219.0       219.0       219.0       219.0       219.0       219.0       219.0    
        219.0     -1.0000E+30 -1.0000E+30 -1.0000E+30 -1.0000E+30 -1.0000E+30 -1.0000E+30 -1.0000E+30 -1.0000E+30 -1.0000E+30
        215.0       215.0       215.0       215.0       215.0       215.0       215.0       215.0       215.0       215.0    
   2    219.0       219.0       219.0       219.0       219.0       219.0       219.0       219.0       219.0       219.0    
        219.0     -1.0000E+30 -1.0000E+30 -1.0000E+30 -1.0000E+30 -1.0000E+30 -1.0000E+30 -1.0000E+30 -1.0000E+30 -1.0000E+30
        215.0       215.0       215.0       215.0       215.0       215.0       215.0       215.0       215.0       215.0    
   3    219.0       219.0       219.0       219.0       219.0       219.0       219.0       219.0       219.0       219.0    
        219.0     -1.0000E+30 -1.0000E+30 -1.0000E+30 -1.0000E+30 -1.0000E+30 -1.0000E+30 -1.0000E+30 -1.0000E+30 -1.0000E+30
      -1.0000E+30   215.0       215.0       215.0       215.0       215.0       215.0       215.0       215.0       215.0    
   4    219.0       219.0       219.0       219.0       219.0       219.0       219.0       219.0       219.0       219.0    
        219.0     -1.0000E+30 -1.0000E+30 -1.0000E+30 -1.0000E+30 -1.0000E+30 -1.0000E+30 -1.0000E+30 -1.0000E+30 -1.0000E+30
      -1.0000E+30   215.0       215.0       215.0       215.0       215.0       215.0       215.0       215.0       215.0    
   5    219.0       219.0       219.0       219.0       219.0       219.0       219.0       219.0       219.0       219.0    
      -1.0000E+30 -1.0000E+30 -1.0000E+30 -1.0000E+30 -1.0000E+30 -1.0000E+30 -1.0000E+30 -1.0000E+30 -1.0000E+30 -1.0000E+30
      -1.0000E+30   215.0       215.0       215.0       215.0       215.0       215.0       215.0       215.0       215.0    
   6    219.0       219.0       219.0       219.0       219.0       219.0       219.0       219.0       219.0       219.0    
      -1.0000E+30 -1.0000E+30 -1.0000E+30 -1.0000E+30 -1.0000E+30 -1.0000E+30 -1.0000E+30 -1.0000E+30 -1.0000E+30 -1.0000E+30
      -1.0000E+30   215.0       215.0       215.0       215.0       215.0       215.0       215.0       215.0       215.0    
   7    219.0       219.0       219.0       219.0       219.0       219.0       219.0       219.0       219.0       219.0    
      -1.0000E+30 -1.0000E+30 -1.0000E+30 -1.0000E+30 -1.0000E+30 -1.0000E+30 -1.0000E+30 -1.0000E+30 -1.0000E+30 -1.0000E+30
      -1.0000E+30 -1.0000E+30   215.0       215.0       215.0       215.0       215.0       215.0       215.0       215.0    
   8    219.0       219.0       219.0       219.0       219.0       219.0       219.0       219.0       219.0     -1.0000E+30
      -1.0000E+30 -1.0000E+30 -1.0000E+30 -1.0000E+30 -1.0000E+30 -1.0000E+30 -1.0000E+30 -1.0000E+30 -1.0000E+30 -1.0000E+30
      -1.0000E+30 -1.0000E+30   215.0       215.0       215.0       215.0       215.0       215.0       215.0       215.0    
   9    219.0       219.0       219.0       219.0       219.0       219.0       219.0       219.0       219.0     -1.0000E+30
      -1.0000E+30 -1.0000E+30 -1.0000E+30 -1.0000E+30 -1.0000E+30 -1.0000E+30 -1.0000E+30 -1.0000E+30 -1.0000E+30 -1.0000E+30
      -1.0000E+30 -1.0000E+30   215.0       215.0       215.0       215.0       215.0       215.0       215.0       215.0    
  10    219.0       219.0       219.0       219.0       219.0       219.0       219.0       219.0       219.0     -1.0000E+30
      -1.0000E+30 -1.0000E+30 -1.0000E+30 -1.0000E+30 -1.0000E+30 -1.0000E+30 -1.0000E+30 -1.0000E+30 -1.0000E+30 -1.0000E+30
      -1.0000E+30 -1.0000E+30   215.0       215.0       215.0       215.0       215.0       215.0       215.0       215.0    
  11    219.0       219.0       219.0       219.0       219.0       219.0       219.0       219.0       219.0     -1.0000E+30
      -1.0000E+30 -1.0000E+30 -1.0000E+30 -1.0000E+30 -1.0000E+30 -1.0000E+30 -1.0000E+30 -1.0000E+30 -1.0000E+30 -1.0000E+30
      -1.0000E+30 -1.0000E+30   215.0       215.0       215.0       215.0       215.0       215.0       215.0       215.0    
  12    219.0       219.0       219.0       219.0       219.0       219.0       219.0       219.0       219.0     -1.0000E+30
      -1.0000E+30 -1.0000E+30 -1.0000E+30 -1.0000E+30 -1.0000E+30 -1.0000E+30 -1.0000E+30 -1.0000E+30 -1.0000E+30 -1.0000E+30
      -1.0000E+30 -1.0000E+30   215.0       215.0       215.0       215.0       215.0       215.0       215.0       215.0    
  13    219.0       219.0       219.0       219.0       219.0       219.0       219.0       219.0       219.0     -1.0000E+30
      -1.0000E+30 -1.0000E+30 -1.0000E+30 -1.0000E+30 -1.0000E+30 -1.0000E+30 -1.0000E+30 -1.0000E+30 -1.0000E+30 -1.0000E+30
      -1.0000E+30 -1.0000E+30 -1.0000E+30   215.0       215.0       215.0       215.0       215.0       215.0       215.0    
  14    219.0       219.0       219.0       219.0       219.0       219.0       219.0       219.0     -1.0000E+30 -1.0000E+30
      -1.0000E+30 -1.0000E+30 -1.0000E+30 -1.0000E+30 -1.0000E+30 -1.0000E+30 -1.0000E+30 -1.0000E+30 -1.0000E+30 -1.0000E+30
      -1.0000E+30 -1.0000E+30 -1.0000E+30   215.0       215.0       215.0       215.0       215.0       215.0       215.0    
  15    219.0       219.0       219.0       219.0       219.0       219.0       219.0       219.0     -1.0000E+30 -1.0000E+30
      -1.0000E+30 -1.0000E+30 -1.0000E+30 -1.0000E+30 -1.0000E+30 -1.0000E+30 -1.0000E+30 -1.0000E+30 -1.0000E+30 -1.0000E+30
      -1.0000E+30 -1.0000E+30 -1.0000E+30   215.0       215.0       215.0       215.0       215.0       215.0       215.0    
  16    219.0       219.0       219.0       219.0       218.9       218.9       218.9       218.9     -1.0000E+30 -1.0000E+30
      -1.0000E+30 -1.0000E+30 -1.0000E+30 -1.0000E+30 -1.0000E+30 -1.0000E+30 -1.0000E+30 -1.0000E+30 -1.0000E+30 -1.0000E+30
      -1.0000E+30 -1.0000E+30 -1.0000E+30   215.0       215.0       215.0       215.0       215.0       215.0       215.0    
  17    219.0       219.0       219.0       218.9       218.9       218.9       218.9     -1.0000E+30 -1.0000E+30 -1.0000E+30
      -1.0000E+30 -1.0000E+30 -1.0000E+30 -1.0000E+30 -1.0000E+30 -1.0000E+30 -1.0000E+30 -1.0000E+30 -1.0000E+30 -1.0000E+30
      -1.0000E+30 -1.0000E+30 -1.0000E+30   215.0       215.0       215.0       215.0       215.0       215.0       215.0    
  18    219.0       219.0       218.9       218.9       218.9       218.9       218.9     -1.0000E+30 -1.0000E+30 -1.0000E+30
      -1.0000E+30 -1.0000E+30 -1.0000E+30 -1.0000E+30 -1.0000E+30 -1.0000E+30 -1.0000E+30 -1.0000E+30 -1.0000E+30 -1.0000E+30
      -1.0000E+30 -1.0000E+30 -1.0000E+30 -1.0000E+30   215.0       215.0       215.0       215.0       215.0       215.0    
  19    219.0       219.0       218.9       218.9       218.9       218.8       218.8     -1.0000E+30 -1.0000E+30 -1.0000E+30
      -1.0000E+30 -1.0000E+30 -1.0000E+30 -1.0000E+30 -1.0000E+30 -1.0000E+30 -1.0000E+30 -1.0000E+30 -1.0000E+30 -1.0000E+30
      -1.0000E+30 -1.0000E+30 -1.0000E+30 -1.0000E+30   215.0       215.0       215.0       215.0       215.0       215.0    
  20    219.0       219.0       218.9       218.9       218.8       218.7     -1.0000E+30 -1.0000E+30 -1.0000E+30 -1.0000E+30
      -1.0000E+30 -1.0000E+30 -1.0000E+30 -1.0000E+30 -1.0000E+30 -1.0000E+30 -1.0000E+30 -1.0000E+30 -1.0000E+30 -1.0000E+30
      -1.0000E+30 -1.0000E+30 -1.0000E+30 -1.0000E+30   215.0       215.0       215.0       215.0       215.0       215.0    
  21    219.0       219.0       218.9       218.9       218.8       218.8     -1.0000E+30 -1.0000E+30 -1.0000E+30 -1.0000E+30
      -1.0000E+30 -1.0000E+30 -1.0000E+30 -1.0000E+30 -1.0000E+30 -1.0000E+30 -1.0000E+30 -1.0000E+30 -1.0000E+30 -1.0000E+30
      -1.0000E+30 -1.0000E+30 -1.0000E+30 -1.0000E+30   215.0       215.0       215.0       215.0       215.0       215.0    
  22    219.0       219.0       218.9       218.9       218.9       218.8     -1.0000E+30 -1.0000E+30 -1.0000E+30 -1.0000E+30
      -1.0000E+30 -1.0000E+30 -1.0000E+30 -1.0000E+30 -1.0000E+30 -1.0000E+30 -1.0000E+30 -1.0000E+30 -1.0000E+30 -1.0000E+30
      -1.0000E+30 -1.0000E+30 -1.0000E+30 -1.0000E+30   215.0       215.0       215.0       215.0       215.0       215.0    
  23    219.0       219.0       218.9       218.9       218.9       218.9     -1.0000E+30 -1.0000E+30 -1.0000E+30 -1.0000E+30
      -1.0000E+30 -1.0000E+30 -1.0000E+30 -1.0000E+30 -1.0000E+30 -1.0000E+30 -1.0000E+30 -1.0000E+30 -1.0000E+30 -1.0000E+30
      -1.0000E+30 -1.0000E+30 -1.0000E+30 -1.0000E+30   215.0       215.0       215.0       215.0       215.0       215.0    
  24    219.0       219.0       218.9       218.9       218.9       218.9     -1.0000E+30 -1.0000E+30 -1.0000E+30 -1.0000E+30
      -1.0000E+30 -1.0000E+30 -1.0000E+30 -1.0000E+30 -1.0000E+30 -1.0000E+30 -1.0000E+30 -1.0000E+30 -1.0000E+30 -1.0000E+30
      -1.0000E+30 -1.0000E+30 -1.0000E+30 -1.0000E+30   215.0       215.0       215.0       215.0       215.0       215.0    
  25    219.0       219.0       219.0       218.9       218.9       218.9       218.9     -1.0000E+30 -1.0000E+30 -1.0000E+30
      -1.0000E+30 -1.0000E+30 -1.0000E+30 -1.0000E+30 -1.0000E+30 -1.0000E+30 -1.0000E+30 -1.0000E+30 -1.0000E+30 -1.0000E+30
      -1.0000E+30 -1.0000E+30 -1.0000E+30 -1.0000E+30   215.0       215.0       215.0       215.0       215.0       215.0    
  26    219.0       219.0       219.0       219.0       218.9       218.9       218.9     -1.0000E+30 -1.0000E+30 -1.0000E+30
      -1.0000E+30 -1.0000E+30 -1.0000E+30 -1.0000E+30 -1.0000E+30 -1.0000E+30 -1.0000E+30 -1.0000E+30 -1.0000E+30 -1.0000E+30
      -1.0000E+30 -1.0000E+30 -1.0000E+30 -1.0000E+30   215.0       215.0       215.0       215.0       215.0       215.0    
  27    219.0       219.0       219.0       219.0       219.0       218.9       218.9     -1.0000E+30 -1.0000E+30 -1.0000E+30
      -1.0000E+30 -1.0000E+30 -1.0000E+30 -1.0000E+30 -1.0000E+30 -1.0000E+30 -1.0000E+30 -1.0000E+30 -1.0000E+30 -1.0000E+30
      -1.0000E+30 -1.0000E+30 -1.0000E+30 -1.0000E+30   215.0       215.0       215.0       215.0       215.0       215.0    
  28    219.0       219.0       219.0       219.0       219.0       219.0       218.9     -1.0000E+30 -1.0000E+30 -1.0000E+30
      -1.0000E+30 -1.0000E+30 -1.0000E+30 -1.0000E+30 -1.0000E+30 -1.0000E+30 -1.0000E+30 -1.0000E+30 -1.0000E+30 -1.0000E+30
      -1.0000E+30 -1.0000E+30 -1.0000E+30 -1.0000E+30   215.0       215.0       215.0       215.0       215.0       215.0    
  29    219.0       219.0       219.0       219.0       219.0       219.0       219.0     -1.0000E+30 -1.0000E+30 -1.0000E+30
      -1.0000E+30 -1.0000E+30 -1.0000E+30 -1.0000E+30 -1.0000E+30 -1.0000E+30 -1.0000E+30 -1.0000E+30 -1.0000E+30 -1.0000E+30
      -1.0000E+30 -1.0000E+30 -1.0000E+30 -1.0000E+30   215.0       215.0       215.0       215.0       215.0       215.0    
  30    219.0       219.0       219.0       219.0       219.0       219.0       219.0     -1.0000E+30 -1.0000E+30 -1.0000E+30
      -1.0000E+30 -1.0000E+30 -1.0000E+30 -1.0000E+30 -1.0000E+30 -1.0000E+30 -1.0000E+30 -1.0000E+30 -1.0000E+30 -1.0000E+30
      -1.0000E+30 -1.0000E+30 -1.0000E+30 -1.0000E+30   215.0       215.0       215.0       215.0       215.0       215.0    

 HEAD WILL BE SAVED ON UNIT   51 AT END OF TIME STEP    1, STRESS PERIOD    1
1
  VOLUMETRIC BUDGET FOR ENTIRE MODEL AT END OF TIME STEP    1, STRESS PERIOD   1
  ------------------------------------------------------------------------------

     CUMULATIVE VOLUMES      L**3       RATES FOR THIS TIME STEP      L**3/T
     ------------------                 ------------------------

           IN:                                      IN:
           ---                                      ---
             STORAGE =           0.0000               STORAGE =           0.0000
       CONSTANT HEAD =         346.0000         CONSTANT HEAD =         346.0000
               WELLS =           0.0000                 WELLS =           0.0000

            TOTAL IN =         346.0000              TOTAL IN =         346.0000

          OUT:                                     OUT:
          ----                                     ----
             STORAGE =           0.0000               STORAGE =           0.0000
       CONSTANT HEAD =       1.7860E-07         CONSTANT HEAD =       1.7860E-07
               WELLS =         346.0000                 WELLS =         346.0000

           TOTAL OUT =         346.0000             TOTAL OUT =         346.0000

            IN - OUT =           0.0000              IN - OUT =           0.0000

 PERCENT DISCREPANCY =           0.00     PERCENT DISCREPANCY =           0.00






         TIME SUMMARY AT END OF TIME STEP    1 IN STRESS PERIOD    1
                    SECONDS     MINUTES      HOURS       DAYS        YEARS
                    -----------------------------------------------------------
   TIME STEP LENGTH  86400.      1440.0      24.000      1.0000     2.73785E-03
 STRESS PERIOD TIME  86400.      1440.0      24.000      1.0000     2.73785E-03
         TOTAL TIME  86400.      1440.0      24.000      1.0000     2.73785E-03
1

 Run end date and time (yyyy/mm/dd hh:mm:ss): 2026/02/11  6:17:22
 Elapsed run time:  0.026 Seconds

