                                  MODFLOW-2005     
      U.S. GEOLOGICAL SURVEY MODULAR FINITE-DIFFERENCE GROUND-WATER FLOW MODEL
                            VERSION 1.12.00 2/3/2017

 LIST FILE: FarmModel_flopy.list
                         UNIT    2

 OPENING FarmModel_flopy.dis
 FILE TYPE:DIS   UNIT   11   STATUS:OLD    
 FORMAT:FORMATTED              ACCESS:SEQUENTIAL          

 OPENING FarmModel_flopy.bas
 FILE TYPE:BAS6   UNIT   13   STATUS:OLD    
 FORMAT:FORMATTED              ACCESS:SEQUENTIAL          

 OPENING FarmModel_flopy.bcf
 FILE TYPE:BCF6   UNIT   15   STATUS:OLD    
 FORMAT:FORMATTED              ACCESS:SEQUENTIAL          

 OPENING FarmModel_flopy.oc
 FILE TYPE:OC   UNIT   14   STATUS:OLD    
 FORMAT:FORMATTED              ACCESS:SEQUENTIAL          

 OPENING FarmModel_flopy.pcg
 FILE TYPE:PCG   UNIT   27   STATUS:OLD    
 FORMAT:FORMATTED              ACCESS:SEQUENTIAL          

 OPENING FarmModel_flopy.wel
 FILE TYPE:WEL   UNIT   20   STATUS:OLD    
 FORMAT:FORMATTED              ACCESS:SEQUENTIAL          

 OPENING FarmModel_flopy.cbc
 FILE TYPE:DATA(BINARY)   UNIT   53   STATUS:REPLACE
 FORMAT:UNFORMATTED            ACCESS:STREAM              

 OPENING FarmModel_flopy.hds
 FILE TYPE:DATA(BINARY)   UNIT   51   STATUS:REPLACE
 FORMAT:UNFORMATTED            ACCESS:STREAM              

 BAS -- BASIC PACKAGE, VERSION 7, 5/2/2005 INPUT READ FROM UNIT   13
 
 MODFLOW was compiled using mixed precision
 Precision of REAL variables:           6
 Precision of DOUBLE PRECISION variables:          15

 DISCRETIZATION INPUT DATA READ FROM UNIT   11
 # DIS package for MODFLOW-2005 generated by Flopy 3.9.5
    1 LAYERS        30 ROWS        30 COLUMNS
    1 STRESS PERIOD(S) IN SIMULATION
 MODEL TIME UNIT IS DAYS
 MODEL LENGTH UNIT IS METERS
  Confining bed flag for each layer:
   0

                     DELR =   100.000    

                     DELC =   100.000    

 TOP ELEVATION OF LAYER 1 =   200.000    

   MODEL LAYER BOTTOM EL. =   0.00000     FOR LAYER   1


 STRESS PERIOD     LENGTH       TIME STEPS     MULTIPLIER FOR DELT    SS FLAG
 ----------------------------------------------------------------------------
        1         1.000000          1                    1.000         SS

 STEADY-STATE SIMULATION



 
 # BAS6 package for MODFLOW-2005 generated by Flopy 3.9.5                        
 THE FREE FORMAT OPTION HAS BEEN SELECTED



                     BOUNDARY ARRAY FOR LAYER   1
 READING ON UNIT   13 WITH FORMAT: (30I10)             

 AQUIFER HEAD WILL BE SET TO  -999.99     AT ALL NO-FLOW NODES (IBOUND=0).



                       INITIAL HEAD FOR LAYER   1
 READING ON UNIT   13 WITH FORMAT: (30E15.6)           
 # OC package for MODFLOW-2005 generated by Flopy 3.9.5

 OUTPUT CONTROL IS SPECIFIED ONLY AT TIME STEPS FOR WHICH OUTPUT IS DESIRED
 COMPACT CELL-BY-CELL BUDGET FILES WILL BE WRITTEN
 AUXILIARY DATA WILL BE SAVED IN CELL-BY-CELL BUDGET FILES
 HEAD PRINT FORMAT CODE IS   0    DRAWDOWN PRINT FORMAT CODE IS   0
 HEADS WILL BE SAVED ON UNIT   51    DRAWDOWNS WILL BE SAVED ON UNIT    0

 BCF -- BLOCK-CENTERED FLOW PACKAGE, VERSION 7, 5/2/2005
         INPUT READ FROM UNIT 15
 STEADY-STATE SIMULATION
 CELL-BY-CELL FLOWS WILL BE SAVED ON UNIT 53
 HEAD AT CELLS THAT CONVERT TO DRY= -0.10000E+31
 WETTING CAPABILITY IS NOT ACTIVE
      LAYER  LAYER-TYPE CODE     INTERBLOCK T
      --------------------------------------------
         1            3          0 -- HARMONIC    

 COLUMN TO ROW ANISOTROPY =   1.00000    



              HYD. COND. ALONG ROWS FOR LAYER   1
 READING ON UNIT   15 WITH FORMAT: (30E15.6)           

 WEL -- WELL PACKAGE, VERSION 7, 5/2/2005 INPUT READ FROM UNIT   20
 # WEL package for MODFLOW-2005 generated by Flopy 3.9.5
 No named parameters
 MAXIMUM OF      3 ACTIVE WELLS AT ONE TIME


     0 Well parameters

 PCG -- CONJUGATE-GRADIENT SOLUTION PACKAGE, VERSION 7, 5/2/2005
 # PCG package for MODFLOW-2005 generated by Flopy 3.9.5
 MAXIMUM OF     50 CALLS OF SOLUTION ROUTINE
 MAXIMUM OF     30 INTERNAL ITERATIONS PER CALL TO SOLUTION ROUTINE
 MATRIX PRECONDITIONING TYPE :    1



                                    SOLUTION BY THE CONJUGATE-GRADIENT METHOD
                                   -------------------------------------------
                    MAXIMUM NUMBER OF CALLS TO PCG ROUTINE =       50
                        MAXIMUM ITERATIONS PER CALL TO PCG =       30
                               MATRIX PRECONDITIONING TYPE =        1
        RELAXATION FACTOR (ONLY USED WITH PRECOND. TYPE 1) =    0.10000E+01
 PARAMETER OF POLYNOMIAL PRECOND. = 2 (2) OR IS CALCULATED :        0
                         HEAD CHANGE CRITERION FOR CLOSURE =    0.10000E-04
                     RESIDUAL CHANGE CRITERION FOR CLOSURE =    0.10000E-04
            PCG HEAD AND RESIDUAL CHANGE PRINTOUT INTERVAL =      999
     PRINTING FROM SOLVER IS LIMITED(1) OR SUPPRESSED (>1) =        3
                            STEADY-STATE DAMPING PARAMETER =    0.10000E+01
                               TRANSIENT DAMPING PARAMETER =    0.10000E+01
1
                            STRESS PERIOD NO.    1, LENGTH =   1.000000    
                            -----------------------------------------------

                              NUMBER OF TIME STEPS =     1

                               MULTIPLIER FOR DELT =     1.000

                            INITIAL TIME STEP SIZE =   1.000000    

 WELL NO.  LAYER   ROW   COL   STRESS RATE         
 --------------------------------------------------
      1      1     20      6      -3.000    
      2      1     20     16      -50.00    
      3      1      8     16      -50.00    

      3 WELLS
 
 SOLVING FOR HEAD 

 OUTPUT CONTROL FOR STRESS PERIOD    1   TIME STEP    1
    PRINT HEAD FOR ALL LAYERS
    PRINT BUDGET
    SAVE HEAD FOR ALL LAYERS
    SAVE BUDGET
 UBDSV2 SAVING "   CONSTANT HEAD" ON UNIT  53 AT TIME STEP  1, STRESS PERIOD   1
 UBDSV1 SAVING "FLOW RIGHT FACE " ON UNIT  53 AT TIME STEP  1, STRESS PERIOD   1
 UBDSV1 SAVING "FLOW FRONT FACE " ON UNIT  53 AT TIME STEP  1, STRESS PERIOD   1
1
              HEAD IN LAYER   1 AT END OF TIME STEP   1 IN STRESS PERIOD    1
  ---------------------------------------------------------------------------

            1           2           3           4           5           6           7           8           9          10
           11          12          13          14          15          16          17          18          19          20
           21          22          23          24          25          26          27          28          29          30
 ........................................................................................................................
   1    219.0       218.9       218.8       218.7       218.6       218.5       218.3       218.2       218.1       218.0    
        217.9       217.8       217.7       217.6       217.5       217.3       217.2       217.0       216.8       216.7    
        216.5       216.3       216.2       216.0       215.8       215.7       215.5       215.3       215.2       215.0    
   2    219.0       218.9       218.8       218.7       218.6       218.5       218.3       218.2       218.1       218.0    
        217.9       217.8       217.7       217.6       217.5       217.3       217.2       217.0       216.8       216.7    
        216.5       216.3       216.2       216.0       215.8       215.7       215.5       215.3       215.2       215.0    
   3    219.0       218.9       218.8       218.7       218.6       218.5       218.3       218.2       218.1       218.0    
        217.9       217.8       217.7       217.6       217.5       217.3       217.2       217.0       216.8       216.7    
        216.5       216.3       216.2       216.0       215.8       215.7       215.5       215.3       215.2       215.0    
   4    219.0       218.9       218.8       218.7       218.6       218.5       218.3       218.2       218.1       218.0    
        217.9       217.8       217.7       217.6       217.5       217.3       217.2       217.0       216.8       216.7    
        216.5       216.3       216.2       216.0       215.8       215.7       215.5       215.3       215.2       215.0    
   5    219.0       218.9       218.8       218.7       218.6       218.5       218.3       218.2       218.1       218.0    
        217.9       217.8       217.7       217.6       217.5       217.3       217.2       217.0       216.8       216.7    
        216.5       216.3       216.2       216.0       215.8       215.7       215.5       215.3       215.2       215.0    
   6    219.0       218.9       218.8       218.7       218.6       218.5       218.3       218.2       218.1       218.0    
        217.9       217.8       217.7       217.6       217.5       217.3       217.2       217.0       216.8       216.7    
        216.5       216.3       216.2       216.0       215.8       215.7       215.5       215.3       215.2       215.0    
   7    219.0       218.9       218.8       218.7       218.6       218.5       218.3       218.2       218.1       218.0    
        217.9       217.8       217.7       217.6       217.5       217.3       217.2       217.0       216.8       216.7    
        216.5       216.3       216.2       216.0       215.8       215.7       215.5       215.3       215.2       215.0    
   8    219.0       218.9       218.8       218.7       218.6       218.5       218.3       218.2       218.1       218.0    
        217.9       217.8       217.7       217.6       217.5       217.3       217.2       217.0       216.8       216.7    
        216.5       216.3       216.2       216.0       215.8       215.7       215.5       215.3       215.2       215.0    
   9    219.0       218.9       218.8       218.7       218.6       218.5       218.3       218.2       218.1       218.0    
        217.9       217.8       217.7       217.6       217.5       217.3       217.2       217.0       216.8       216.7    
        216.5       216.3       216.2       216.0       215.8       215.7       215.5       215.3       215.2       215.0    
  10    219.0       218.9       218.8       218.7       218.6       218.5       218.3       218.2       218.1       218.0    
        217.9       217.8       217.7       217.6       217.5       217.3       217.2       217.0       216.8       216.7    
        216.5       216.3       216.2       216.0       215.8       215.7       215.5       215.3       215.2       215.0    
  11    219.0       218.9       218.8       218.7       218.6       218.5       218.3       218.2       218.1       218.0    
        217.9       217.8       217.7       217.6       217.5       217.3       217.2       217.0       216.8       216.7    
        216.5       216.3       216.2       216.0       215.8       215.7       215.5       215.3       215.2       215.0    
  12    219.0       218.9       218.8       218.7       218.6       218.5       218.3       218.2       218.1       218.0    
        217.9       217.8       217.7       217.6       217.5       217.3       217.2       217.0       216.8       216.7    
        216.5       216.3       216.2       216.0       215.8       215.7       215.5       215.3       215.2       215.0    
  13    219.0       218.9       218.8       218.7       218.6       218.5       218.3       218.2       218.1       218.0    
        217.9       217.8       217.7       217.6       217.5       217.3       217.2       217.0       216.8       216.7    
        216.5       216.3       216.2       216.0       215.8       215.7       215.5       215.3       215.2       215.0    
  14    219.0       218.9       218.8       218.7       218.6       218.5       218.3       218.2       218.1       218.0    
        217.9       217.8       217.7       217.6       217.5       217.3       217.2       217.0       216.8       216.7    
        216.5       216.3       216.2       216.0       215.8       215.7       215.5       215.3       215.2       215.0    
  15    219.0       218.9       218.8       218.7       218.6       218.5       218.3       218.2       218.1       218.0    
        217.9       217.8       217.7       217.6       217.5       217.3       217.2       217.0       216.8       216.7    
        216.5       216.3       216.2       216.0       215.8       215.7       215.5       215.3       215.2       215.0    
  16    219.0       218.9       218.8       218.7       218.6       218.4       218.3       218.2       218.1       218.0    
        217.9       217.8       217.7       217.6       217.5       217.3       217.1       217.0       216.8       216.7    
        216.5       216.3       216.2       216.0       215.8       215.7       215.5       215.3       215.2       215.0    
  17    219.0       218.9       218.8       218.7       218.6       218.4       218.3       218.2       218.1       218.0    
        217.9       217.8       217.7       217.6       217.4       217.3       217.1       217.0       216.8       216.6    
        216.5       216.3       216.2       216.0       215.8       215.7       215.5       215.3       215.2       215.0    
  18    219.0       218.9       218.8       218.7       218.6       218.4       218.3       218.2       218.1       218.0    
        217.9       217.8       217.7       217.5       217.4       217.3       217.1       217.0       216.8       216.6    
        216.5       216.3       216.2       216.0       215.8       215.7       215.5       215.3       215.2       215.0    
  19    219.0       218.9       218.8       218.7       218.6       218.4       218.3       218.2       218.1       218.0    
        217.9       217.8       217.6       217.5       217.4       217.2       217.1       216.9       216.8       216.6    
        216.5       216.3       216.1       216.0       215.8       215.7       215.5       215.3       215.2       215.0    
  20    219.0       218.9       218.8       218.7       218.6       218.4       218.3       218.2       218.1       218.0    
        217.9       217.8       217.6       217.5       217.4       217.2       217.1       216.9       216.8       216.6    
        216.5       216.3       216.1       216.0       215.8       215.7       215.5       215.3       215.2       215.0    
  21    219.0       218.9       218.8       218.7       218.6       218.4       218.3       218.2       218.1       218.0    
        217.9       217.8       217.6       217.5       217.4       217.2       217.1       216.9       216.8       216.6    
        216.5       216.3       216.1       216.0       215.8       215.7       215.5       215.3       215.2       215.0    
  22    219.0       218.9       218.8       218.7       218.6       218.4       218.3       218.2       218.1       218.0    
        217.9       217.8       217.6       217.5       217.4       217.3       217.1       216.9       216.8       216.6    
        216.5       216.3       216.1       216.0       215.8       215.7       215.5       215.3       215.2       215.0    
  23    219.0       218.9       218.8       218.7       218.6       218.4       218.3       218.2       218.1       218.0    
        217.9       217.8       217.6       217.5       217.4       217.3       217.1       216.9       216.8       216.6    
        216.5       216.3       216.1       216.0       215.8       215.7       215.5       215.3       215.2       215.0    
  24    219.0       218.9       218.8       218.7       218.6       218.4       218.3       218.2       218.1       218.0    
        217.9       217.8       217.6       217.5       217.4       217.3       217.1       217.0       216.8       216.6    
        216.5       216.3       216.1       216.0       215.8       215.7       215.5       215.3       215.2       215.0    
  25    219.0       218.9       218.8       218.7       218.6       218.4       218.3       218.2       218.1       218.0    
        217.9       217.8       217.6       217.5       217.4       217.3       217.1       217.0       216.8       216.6    
        216.5       216.3       216.1       216.0       215.8       215.7       215.5       215.3       215.2       215.0    
  26    219.0       218.9       218.8       218.7       218.6       218.4       218.3       218.2       218.1       218.0    
        217.9       217.8       217.6       217.5       217.4       217.3       217.1       217.0       216.8       216.6    
        216.5       216.3       216.1       216.0       215.8       215.7       215.5       215.3       215.2       215.0    
  27    219.0       218.9       218.8       218.7       218.6       218.4       218.3       218.2       218.1       218.0    
        217.9       217.8       217.7       217.5       217.4       217.3       217.1       217.0       216.8       216.6    
        216.5       216.3       216.1       216.0       215.8       215.7       215.5       215.3       215.2       215.0    
  28    219.0       218.9       218.8       218.7       218.6       218.4       218.3       218.2       218.1       218.0    
        217.9       217.8       217.7       217.5       217.4       217.3       217.1       217.0       216.8       216.6    
        216.5       216.3       216.1       216.0       215.8       215.7       215.5       215.3       215.2       215.0    
  29    219.0       218.9       218.8       218.7       218.6       218.4       218.3       218.2       218.1       218.0    
        217.9       217.8       217.7       217.5       217.4       217.3       217.1       217.0       216.8       216.6    
        216.5       216.3       216.1       216.0       215.8       215.7       215.5       215.3       215.2       215.0    
  30    219.0       218.9       218.8       218.7       218.6       218.4       218.3       218.2       218.1       218.0    
        217.9       217.8       217.7       217.5       217.4       217.3       217.1       217.0       216.8       216.6    
        216.5       216.3       216.1       216.0       215.8       215.7       215.5       215.3       215.2       215.0    

 HEAD WILL BE SAVED ON UNIT   51 AT END OF TIME STEP    1, STRESS PERIOD    1
1
  VOLUMETRIC BUDGET FOR ENTIRE MODEL AT END OF TIME STEP    1, STRESS PERIOD   1
  ------------------------------------------------------------------------------

     CUMULATIVE VOLUMES      L**3       RATES FOR THIS TIME STEP      L**3/T
     ------------------                 ------------------------

           IN:                                      IN:
           ---                                      ---
             STORAGE =           0.0000               STORAGE =           0.0000
       CONSTANT HEAD =        4780.6631         CONSTANT HEAD =        4780.6631
               WELLS =           0.0000                 WELLS =           0.0000

            TOTAL IN =        4780.6631              TOTAL IN =        4780.6631

          OUT:                                     OUT:
          ----                                     ----
             STORAGE =           0.0000               STORAGE =           0.0000
       CONSTANT HEAD =        4677.6631         CONSTANT HEAD =        4677.6631
               WELLS =         103.0000                 WELLS =         103.0000

           TOTAL OUT =        4780.6631             TOTAL OUT =        4780.6631

            IN - OUT =           0.0000              IN - OUT =           0.0000

 PERCENT DISCREPANCY =           0.00     PERCENT DISCREPANCY =           0.00






         TIME SUMMARY AT END OF TIME STEP    1 IN STRESS PERIOD    1
                    SECONDS     MINUTES      HOURS       DAYS        YEARS
                    -----------------------------------------------------------
   TIME STEP LENGTH  86400.      1440.0      24.000      1.0000     2.73785E-03
 STRESS PERIOD TIME  86400.      1440.0      24.000      1.0000     2.73785E-03
         TOTAL TIME  86400.      1440.0      24.000      1.0000     2.73785E-03
1

 Run end date and time (yyyy/mm/dd hh:mm:ss): 2026/02/10 21:00:16
 Elapsed run time:  0.015 Seconds

