                                  MODFLOW-2005     
      U.S. GEOLOGICAL SURVEY MODULAR FINITE-DIFFERENCE GROUND-WATER FLOW MODEL
                            VERSION 1.12.00 2/3/2017

 LIST FILE: FarmModel_flopy.list
                         UNIT    2

 OPENING FarmModel_flopy.dis
 FILE TYPE:DIS   UNIT   11   STATUS:OLD    
 FORMAT:FORMATTED              ACCESS:SEQUENTIAL          

 OPENING FarmModel_flopy.bas
 FILE TYPE:BAS6   UNIT   13   STATUS:OLD    
 FORMAT:FORMATTED              ACCESS:SEQUENTIAL          

 OPENING FarmModel_flopy.bcf
 FILE TYPE:BCF6   UNIT   15   STATUS:OLD    
 FORMAT:FORMATTED              ACCESS:SEQUENTIAL          

 OPENING FarmModel_flopy.oc
 FILE TYPE:OC   UNIT   14   STATUS:OLD    
 FORMAT:FORMATTED              ACCESS:SEQUENTIAL          

 OPENING FarmModel_flopy.pcg
 FILE TYPE:PCG   UNIT   27   STATUS:OLD    
 FORMAT:FORMATTED              ACCESS:SEQUENTIAL          

 OPENING FarmModel_flopy.wel
 FILE TYPE:WEL   UNIT   20   STATUS:OLD    
 FORMAT:FORMATTED              ACCESS:SEQUENTIAL          

 OPENING FarmModel_flopy.rch
 FILE TYPE:RCH   UNIT   19   STATUS:OLD    
 FORMAT:FORMATTED              ACCESS:SEQUENTIAL          

 OPENING FarmModel_flopy.cbc
 FILE TYPE:DATA(BINARY)   UNIT   53   STATUS:REPLACE
 FORMAT:UNFORMATTED            ACCESS:STREAM              

 OPENING FarmModel_flopy.hds
 FILE TYPE:DATA(BINARY)   UNIT   51   STATUS:REPLACE
 FORMAT:UNFORMATTED            ACCESS:STREAM              

 BAS -- BASIC PACKAGE, VERSION 7, 5/2/2005 INPUT READ FROM UNIT   13
 
 MODFLOW was compiled using mixed precision
 Precision of REAL variables:           6
 Precision of DOUBLE PRECISION variables:          15

 DISCRETIZATION INPUT DATA READ FROM UNIT   11
 # DIS package for MODFLOW-2005 generated by Flopy 3.9.5
    1 LAYERS        30 ROWS        30 COLUMNS
    1 STRESS PERIOD(S) IN SIMULATION
 MODEL TIME UNIT IS DAYS
 MODEL LENGTH UNIT IS METERS
  Confining bed flag for each layer:
   0

                     DELR =   100.000    

                     DELC =   100.000    

 TOP ELEVATION OF LAYER 1 =   200.000    

   MODEL LAYER BOTTOM EL. =   0.00000     FOR LAYER   1


 STRESS PERIOD     LENGTH       TIME STEPS     MULTIPLIER FOR DELT    SS FLAG
 ----------------------------------------------------------------------------
        1         1.000000          1                    1.000         SS

 STEADY-STATE SIMULATION



 
 # BAS6 package for MODFLOW-2005 generated by Flopy 3.9.5                        
 THE FREE FORMAT OPTION HAS BEEN SELECTED



                     BOUNDARY ARRAY FOR LAYER   1
 READING ON UNIT   13 WITH FORMAT: (30I10)             

 AQUIFER HEAD WILL BE SET TO  -999.99     AT ALL NO-FLOW NODES (IBOUND=0).



                       INITIAL HEAD FOR LAYER   1
 READING ON UNIT   13 WITH FORMAT: (30E15.6)           
 # OC package for MODFLOW-2005 generated by Flopy 3.9.5

 OUTPUT CONTROL IS SPECIFIED ONLY AT TIME STEPS FOR WHICH OUTPUT IS DESIRED
 COMPACT CELL-BY-CELL BUDGET FILES WILL BE WRITTEN
 AUXILIARY DATA WILL BE SAVED IN CELL-BY-CELL BUDGET FILES
 HEAD PRINT FORMAT CODE IS   0    DRAWDOWN PRINT FORMAT CODE IS   0
 HEADS WILL BE SAVED ON UNIT   51    DRAWDOWNS WILL BE SAVED ON UNIT    0

 BCF -- BLOCK-CENTERED FLOW PACKAGE, VERSION 7, 5/2/2005
         INPUT READ FROM UNIT 15
 STEADY-STATE SIMULATION
 CELL-BY-CELL FLOWS WILL BE SAVED ON UNIT 53
 HEAD AT CELLS THAT CONVERT TO DRY= -0.10000E+31
 WETTING CAPABILITY IS NOT ACTIVE
      LAYER  LAYER-TYPE CODE     INTERBLOCK T
      --------------------------------------------
         1            3          0 -- HARMONIC    

 COLUMN TO ROW ANISOTROPY =   1.00000    



              HYD. COND. ALONG ROWS FOR LAYER   1
 READING ON UNIT   15 WITH FORMAT: (30E15.6)           

 WEL -- WELL PACKAGE, VERSION 7, 5/2/2005 INPUT READ FROM UNIT   20
 # WEL package for MODFLOW-2005 generated by Flopy 3.9.5
 No named parameters
 MAXIMUM OF      1 ACTIVE WELLS AT ONE TIME


     0 Well parameters

 RCH -- RECHARGE PACKAGE, VERSION 7, 5/2/2005 INPUT READ FROM UNIT   19
 # RCH package for MODFLOW-2005 generated by Flopy 3.9.5
 No named parameters
 OPTION 3 -- RECHARGE TO HIGHEST ACTIVE NODE IN EACH VERTICAL COLUMN
 CELL-BY-CELL FLOWS WILL BE SAVED ON UNIT   53


     0 Recharge parameters

 PCG -- CONJUGATE-GRADIENT SOLUTION PACKAGE, VERSION 7, 5/2/2005
 # PCG package for MODFLOW-2005 generated by Flopy 3.9.5
 MAXIMUM OF     50 CALLS OF SOLUTION ROUTINE
 MAXIMUM OF     30 INTERNAL ITERATIONS PER CALL TO SOLUTION ROUTINE
 MATRIX PRECONDITIONING TYPE :    1



                                    SOLUTION BY THE CONJUGATE-GRADIENT METHOD
                                   -------------------------------------------
                    MAXIMUM NUMBER OF CALLS TO PCG ROUTINE =       50
                        MAXIMUM ITERATIONS PER CALL TO PCG =       30
                               MATRIX PRECONDITIONING TYPE =        1
        RELAXATION FACTOR (ONLY USED WITH PRECOND. TYPE 1) =    0.10000E+01
 PARAMETER OF POLYNOMIAL PRECOND. = 2 (2) OR IS CALCULATED :        0
                         HEAD CHANGE CRITERION FOR CLOSURE =    0.10000E-04
                     RESIDUAL CHANGE CRITERION FOR CLOSURE =    0.10000E-04
            PCG HEAD AND RESIDUAL CHANGE PRINTOUT INTERVAL =      999
     PRINTING FROM SOLVER IS LIMITED(1) OR SUPPRESSED (>1) =        3
                            STEADY-STATE DAMPING PARAMETER =    0.10000E+01
                               TRANSIENT DAMPING PARAMETER =    0.10000E+01
1
                            STRESS PERIOD NO.    1, LENGTH =   1.000000    
                            -----------------------------------------------

                              NUMBER OF TIME STEPS =     1

                               MULTIPLIER FOR DELT =     1.000

                            INITIAL TIME STEP SIZE =   1.000000    

 WELL NO.  LAYER   ROW   COL   STRESS RATE         
 --------------------------------------------------
      1      1      2      2      -10.00    

      1 WELL 



                           RECHARGE
 READING ON UNIT   19 WITH FORMAT: (30E15.6)           
 
 SOLVING FOR HEAD 

 OUTPUT CONTROL FOR STRESS PERIOD    1   TIME STEP    1
    PRINT HEAD FOR ALL LAYERS
    PRINT BUDGET
    SAVE HEAD FOR ALL LAYERS
    SAVE BUDGET
 UBDSV2 SAVING "   CONSTANT HEAD" ON UNIT  53 AT TIME STEP  1, STRESS PERIOD   1
 UBDSV1 SAVING "FLOW RIGHT FACE " ON UNIT  53 AT TIME STEP  1, STRESS PERIOD   1
 UBDSV1 SAVING "FLOW FRONT FACE " ON UNIT  53 AT TIME STEP  1, STRESS PERIOD   1
 UBDSV3 SAVING "        RECHARGE" ON UNIT  53 AT TIME STEP  1, STRESS PERIOD   1
1
              HEAD IN LAYER   1 AT END OF TIME STEP   1 IN STRESS PERIOD    1
  ---------------------------------------------------------------------------

            1           2           3           4           5           6           7           8           9          10
           11          12          13          14          15          16          17          18          19          20
           21          22          23          24          25          26          27          28          29          30
 ........................................................................................................................
   1    20.00       19.79       19.59       19.38       19.18       18.97       18.75       18.54       18.32       18.10    
        17.87       17.64       17.41       17.18       16.94       16.63       16.24       15.85       15.45       15.04    
        14.61       14.17       13.72       13.25       12.77       12.27       11.74       11.19       10.61       10.00    
   2    20.00       19.78       19.59       19.38       19.18       18.97       18.75       18.54       18.32       18.10    
        17.87       17.64       17.41       17.18       16.94       16.63       16.24       15.85       15.45       15.04    
        14.61       14.17       13.72       13.25       12.77       12.27       11.74       11.19       10.61       10.00    
   3    20.00       19.79       19.59       19.38       19.18       18.97       18.75       18.54       18.32       18.10    
        17.87       17.64       17.41       17.18       16.94       16.63       16.24       15.85       15.45       15.04    
        14.61       14.17       13.72       13.25       12.77       12.27       11.74       11.19       10.61       10.00    
   4    20.00       19.80       19.59       19.39       19.18       18.97       18.76       18.54       18.32       18.10    
        17.87       17.64       17.41       17.18       16.94       16.63       16.24       15.85       15.45       15.04    
        14.61       14.17       13.72       13.25       12.77       12.27       11.74       11.19       10.61       10.00    
   5    20.00       19.80       19.59       19.39       19.18       18.97       18.76       18.54       18.32       18.10    
        17.87       17.65       17.41       17.18       16.94       16.63       16.24       15.85       15.45       15.04    
        14.61       14.17       13.72       13.25       12.77       12.27       11.74       11.19       10.61       10.00    
   6    20.00       19.80       19.59       19.39       19.18       18.97       18.76       18.55       18.33       18.10    
        17.88       17.65       17.41       17.18       16.94       16.63       16.24       15.85       15.45       15.04    
        14.61       14.17       13.72       13.25       12.77       12.27       11.74       11.19       10.61       10.00    
   7    20.00       19.80       19.60       19.39       19.18       18.97       18.76       18.55       18.33       18.11    
        17.88       17.65       17.41       17.18       16.94       16.63       16.24       15.85       15.45       15.04    
        14.61       14.17       13.72       13.25       12.77       12.27       11.74       11.19       10.61       10.00    
   8    20.00       19.80       19.60       19.39       19.18       18.98       18.77       18.55       18.33       18.11    
        17.88       17.65       17.41       17.18       16.94       16.63       16.24       15.85       15.45       15.04    
        14.61       14.17       13.72       13.25       12.77       12.26       11.74       11.19       10.61       10.00    
   9    20.00       19.80       19.60       19.39       19.18       18.98       18.77       18.55       18.33       18.11    
        17.88       17.65       17.41       17.18       16.94       16.63       16.24       15.85       15.45       15.04    
        14.61       14.17       13.72       13.25       12.77       12.26       11.74       11.19       10.61       10.00    
  10    20.00       19.80       19.60       19.39       19.18       18.97       18.76       18.55       18.33       18.11    
        17.88       17.65       17.41       17.18       16.94       16.63       16.24       15.85       15.45       15.03    
        14.61       14.17       13.72       13.25       12.77       12.26       11.74       11.19       10.61       10.00    
  11    20.00       19.80       19.60       19.39       19.18       18.97       18.76       18.55       18.33       18.10    
        17.88       17.65       17.41       17.18       16.94       16.63       16.24       15.85       15.45       15.03    
        14.61       14.17       13.72       13.25       12.77       12.26       11.74       11.19       10.61       10.00    
  12    20.00       19.80       19.60       19.39       19.18       18.97       18.76       18.54       18.32       18.10    
        17.87       17.64       17.41       17.18       16.94       16.63       16.24       15.85       15.45       15.03    
        14.61       14.17       13.72       13.25       12.77       12.26       11.74       11.19       10.61       10.00    
  13    20.00       19.80       19.59       19.39       19.18       18.97       18.76       18.54       18.32       18.10    
        17.87       17.64       17.41       17.18       16.94       16.63       16.24       15.85       15.45       15.03    
        14.61       14.17       13.72       13.25       12.77       12.26       11.74       11.19       10.61       10.00    
  14    20.00       19.80       19.59       19.39       19.18       18.97       18.76       18.54       18.32       18.10    
        17.87       17.64       17.41       17.17       16.94       16.63       16.24       15.85       15.45       15.03    
        14.61       14.17       13.72       13.25       12.77       12.26       11.74       11.19       10.61       10.00    
  15    20.00       19.80       19.59       19.39       19.18       18.97       18.75       18.54       18.32       18.10    
        17.87       17.64       17.41       17.17       16.93       16.62       16.24       15.85       15.45       15.03    
        14.61       14.17       13.72       13.25       12.77       12.26       11.74       11.19       10.61       10.00    
  16    20.00       19.80       19.59       19.39       19.18       18.97       18.75       18.54       18.32       18.09    
        17.87       17.64       17.40       17.17       16.93       16.62       16.24       15.84       15.44       15.03    
        14.61       14.17       13.72       13.25       12.77       12.26       11.74       11.19       10.61       10.00    
  17    20.00       19.80       19.59       19.39       19.18       18.96       18.75       18.53       18.31       18.09    
        17.86       17.63       17.40       17.16       16.92       16.61       16.23       15.84       15.44       15.03    
        14.60       14.16       13.71       13.25       12.76       12.26       11.74       11.19       10.61       10.00    
  18    20.00       19.80       19.59       19.38       19.17       18.96       18.75       18.53       18.31       18.08    
        17.86       17.63       17.39       17.16       16.91       16.60       16.22       15.83       15.43       15.02    
        14.60       14.16       13.71       13.24       12.76       12.26       11.74       11.19       10.61       10.00    
  19    20.00       19.80       19.59       19.38       19.17       18.96       18.74       18.53       18.31       18.08    
        17.85       17.62       17.39       17.15       16.91       16.60       16.22       15.83       15.43       15.02    
        14.59       14.16       13.71       13.24       12.76       12.26       11.73       11.19       10.61       10.00    
  20    20.00       19.80       19.59       19.38       19.17       18.96       18.74       18.52       18.30       18.08    
        17.85       17.62       17.38       17.15       16.90       16.59       16.21       15.82       15.42       15.01    
        14.59       14.16       13.71       13.24       12.76       12.26       11.73       11.19       10.61       10.00    
  21    20.00       19.80       19.59       19.38       19.17       18.96       18.74       18.52       18.30       18.07    
        17.85       17.62       17.38       17.14       16.90       16.59       16.21       15.82       15.42       15.01    
        14.59       14.15       13.70       13.24       12.76       12.25       11.73       11.18       10.61       10.00    
  22    20.00       19.80       19.59       19.38       19.17       18.96       18.74       18.52       18.30       18.07    
        17.84       17.61       17.38       17.14       16.90       16.59       16.21       15.82       15.42       15.01    
        14.59       14.15       13.70       13.24       12.75       12.25       11.73       11.18       10.61       10.00    
  23    20.00       19.80       19.59       19.38       19.17       18.95       18.74       18.52       18.30       18.07    
        17.84       17.61       17.37       17.14       16.89       16.58       16.20       15.81       15.42       15.01    
        14.58       14.15       13.70       13.23       12.75       12.25       11.73       11.18       10.61       10.00    
  24    20.00       19.80       19.59       19.38       19.17       18.95       18.74       18.52       18.29       18.07    
        17.84       17.61       17.37       17.13       16.89       16.58       16.20       15.81       15.41       15.00    
        14.58       14.15       13.70       13.23       12.75       12.25       11.73       11.18       10.61       10.00    
  25    20.00       19.79       19.59       19.38       19.17       18.95       18.73       18.51       18.29       18.07    
        17.84       17.61       17.37       17.13       16.89       16.58       16.20       15.81       15.41       15.00    
        14.58       14.15       13.70       13.23       12.75       12.25       11.73       11.18       10.61       10.00    
  26    20.00       19.79       19.59       19.38       19.17       18.95       18.73       18.51       18.29       18.07    
        17.84       17.60       17.37       17.13       16.89       16.58       16.20       15.81       15.41       15.00    
        14.58       14.14       13.70       13.23       12.75       12.25       11.73       11.18       10.61       10.00    
  27    20.00       19.79       19.59       19.38       19.17       18.95       18.73       18.51       18.29       18.06    
        17.84       17.60       17.37       17.13       16.88       16.58       16.20       15.81       15.41       15.00    
        14.58       14.14       13.69       13.23       12.75       12.25       11.73       11.18       10.61       10.00    
  28    20.00       19.79       19.59       19.38       19.16       18.95       18.73       18.51       18.29       18.06    
        17.83       17.60       17.37       17.13       16.88       16.57       16.20       15.81       15.41       15.00    
        14.58       14.14       13.69       13.23       12.75       12.25       11.73       11.18       10.61       10.00    
  29    20.00       19.79       19.59       19.38       19.16       18.95       18.73       18.51       18.29       18.06    
        17.83       17.60       17.37       17.13       16.88       16.57       16.19       15.81       15.41       15.00    
        14.58       14.14       13.69       13.23       12.75       12.25       11.73       11.18       10.61       10.00    
  30    20.00       19.79       19.59       19.38       19.16       18.95       18.73       18.51       18.29       18.06    
        17.83       17.60       17.37       17.13       16.88       16.57       16.19       15.81       15.41       15.00    
        14.58       14.14       13.69       13.23       12.75       12.25       11.73       11.18       10.61       10.00    

 HEAD WILL BE SAVED ON UNIT   51 AT END OF TIME STEP    1, STRESS PERIOD    1
1
  VOLUMETRIC BUDGET FOR ENTIRE MODEL AT END OF TIME STEP    1, STRESS PERIOD   1
  ------------------------------------------------------------------------------

     CUMULATIVE VOLUMES      L**3       RATES FOR THIS TIME STEP      L**3/T
     ------------------                 ------------------------

           IN:                                      IN:
           ---                                      ---
             STORAGE =           0.0000               STORAGE =           0.0000
       CONSTANT HEAD =         881.6472         CONSTANT HEAD =         881.6472
               WELLS =           0.0000                 WELLS =           0.0000
            RECHARGE =          16.0000              RECHARGE =          16.0000

            TOTAL IN =         897.6472              TOTAL IN =         897.6472

          OUT:                                     OUT:
          ----                                     ----
             STORAGE =           0.0000               STORAGE =           0.0000
       CONSTANT HEAD =         887.6472         CONSTANT HEAD =         887.6472
               WELLS =          10.0000                 WELLS =          10.0000
            RECHARGE =           0.0000              RECHARGE =           0.0000

           TOTAL OUT =         897.6472             TOTAL OUT =         897.6472

            IN - OUT =       6.1035E-05              IN - OUT =       6.1035E-05

 PERCENT DISCREPANCY =           0.00     PERCENT DISCREPANCY =           0.00






         TIME SUMMARY AT END OF TIME STEP    1 IN STRESS PERIOD    1
                    SECONDS     MINUTES      HOURS       DAYS        YEARS
                    -----------------------------------------------------------
   TIME STEP LENGTH  86400.      1440.0      24.000      1.0000     2.73785E-03
 STRESS PERIOD TIME  86400.      1440.0      24.000      1.0000     2.73785E-03
         TOTAL TIME  86400.      1440.0      24.000      1.0000     2.73785E-03
1

 Run end date and time (yyyy/mm/dd hh:mm:ss): 2026/02/10  5:14:58
 Elapsed run time:  0.030 Seconds

