                                  MODFLOW-2005     
      U.S. GEOLOGICAL SURVEY MODULAR FINITE-DIFFERENCE GROUND-WATER FLOW MODEL
                            VERSION 1.12.00 2/3/2017

 LIST FILE: Scenario1_flopy.list
                         UNIT    2

 OPENING Scenario1_flopy.dis
 FILE TYPE:DIS   UNIT   11   STATUS:OLD    
 FORMAT:FORMATTED              ACCESS:SEQUENTIAL          

 OPENING Scenario1_flopy.bas
 FILE TYPE:BAS6   UNIT   13   STATUS:OLD    
 FORMAT:FORMATTED              ACCESS:SEQUENTIAL          

 OPENING Scenario1_flopy.bcf
 FILE TYPE:BCF6   UNIT   15   STATUS:OLD    
 FORMAT:FORMATTED              ACCESS:SEQUENTIAL          

 OPENING Scenario1_flopy.oc
 FILE TYPE:OC   UNIT   14   STATUS:OLD    
 FORMAT:FORMATTED              ACCESS:SEQUENTIAL          

 OPENING Scenario1_flopy.pcg
 FILE TYPE:PCG   UNIT   27   STATUS:OLD    
 FORMAT:FORMATTED              ACCESS:SEQUENTIAL          

 OPENING Scenario1_flopy.wel
 FILE TYPE:WEL   UNIT   20   STATUS:OLD    
 FORMAT:FORMATTED              ACCESS:SEQUENTIAL          

 OPENING Scenario1_flopy.rch
 FILE TYPE:RCH   UNIT   19   STATUS:OLD    
 FORMAT:FORMATTED              ACCESS:SEQUENTIAL          

 OPENING Scenario1_flopy.cbc
 FILE TYPE:DATA(BINARY)   UNIT   53   STATUS:REPLACE
 FORMAT:UNFORMATTED            ACCESS:STREAM              

 OPENING Scenario1_flopy.hds
 FILE TYPE:DATA(BINARY)   UNIT   51   STATUS:REPLACE
 FORMAT:UNFORMATTED            ACCESS:STREAM              

 BAS -- BASIC PACKAGE, VERSION 7, 5/2/2005 INPUT READ FROM UNIT   13
 
 MODFLOW was compiled using mixed precision
 Precision of REAL variables:           6
 Precision of DOUBLE PRECISION variables:          15

 DISCRETIZATION INPUT DATA READ FROM UNIT   11
 # DIS package for MODFLOW-2005 generated by Flopy 3.9.5
    1 LAYERS        30 ROWS        30 COLUMNS
    1 STRESS PERIOD(S) IN SIMULATION
 MODEL TIME UNIT IS DAYS
 MODEL LENGTH UNIT IS METERS
  Confining bed flag for each layer:
   0

                     DELR =   100.000    

                     DELC =   100.000    

 TOP ELEVATION OF LAYER 1 =   500.000    

   MODEL LAYER BOTTOM EL. =   0.00000     FOR LAYER   1


 STRESS PERIOD     LENGTH       TIME STEPS     MULTIPLIER FOR DELT    SS FLAG
 ----------------------------------------------------------------------------
        1         1.000000          1                    1.000         SS

 STEADY-STATE SIMULATION



 
 # BAS6 package for MODFLOW-2005 generated by Flopy 3.9.5                        
 THE FREE FORMAT OPTION HAS BEEN SELECTED



                     BOUNDARY ARRAY FOR LAYER   1
 READING ON UNIT   13 WITH FORMAT: (30I10)             

 AQUIFER HEAD WILL BE SET TO  -999.99     AT ALL NO-FLOW NODES (IBOUND=0).



                       INITIAL HEAD FOR LAYER   1
 READING ON UNIT   13 WITH FORMAT: (30E15.6)           
 # OC package for MODFLOW-2005 generated by Flopy 3.9.5

 OUTPUT CONTROL IS SPECIFIED ONLY AT TIME STEPS FOR WHICH OUTPUT IS DESIRED
 COMPACT CELL-BY-CELL BUDGET FILES WILL BE WRITTEN
 AUXILIARY DATA WILL BE SAVED IN CELL-BY-CELL BUDGET FILES
 HEAD PRINT FORMAT CODE IS   0    DRAWDOWN PRINT FORMAT CODE IS   0
 HEADS WILL BE SAVED ON UNIT   51    DRAWDOWNS WILL BE SAVED ON UNIT    0

 BCF -- BLOCK-CENTERED FLOW PACKAGE, VERSION 7, 5/2/2005
         INPUT READ FROM UNIT 15
 STEADY-STATE SIMULATION
 CELL-BY-CELL FLOWS WILL BE SAVED ON UNIT 53
 HEAD AT CELLS THAT CONVERT TO DRY= -0.10000E+31
 WETTING CAPABILITY IS NOT ACTIVE
      LAYER  LAYER-TYPE CODE     INTERBLOCK T
      --------------------------------------------
         1            3          0 -- HARMONIC    

 COLUMN TO ROW ANISOTROPY =   1.00000    



              HYD. COND. ALONG ROWS FOR LAYER   1
 READING ON UNIT   15 WITH FORMAT: (30E15.6)           

 WEL -- WELL PACKAGE, VERSION 7, 5/2/2005 INPUT READ FROM UNIT   20
 # WEL package for MODFLOW-2005 generated by Flopy 3.9.5
 No named parameters
 MAXIMUM OF      3 ACTIVE WELLS AT ONE TIME


     0 Well parameters

 RCH -- RECHARGE PACKAGE, VERSION 7, 5/2/2005 INPUT READ FROM UNIT   19
 # RCH package for MODFLOW-2005 generated by Flopy 3.9.5
 No named parameters
 OPTION 1 -- RECHARGE TO TOP LAYER
 CELL-BY-CELL FLOWS WILL BE SAVED ON UNIT   53


     0 Recharge parameters

 PCG -- CONJUGATE-GRADIENT SOLUTION PACKAGE, VERSION 7, 5/2/2005
 # PCG package for MODFLOW-2005 generated by Flopy 3.9.5
 MAXIMUM OF     50 CALLS OF SOLUTION ROUTINE
 MAXIMUM OF     30 INTERNAL ITERATIONS PER CALL TO SOLUTION ROUTINE
 MATRIX PRECONDITIONING TYPE :    1



                                    SOLUTION BY THE CONJUGATE-GRADIENT METHOD
                                   -------------------------------------------
                    MAXIMUM NUMBER OF CALLS TO PCG ROUTINE =       50
                        MAXIMUM ITERATIONS PER CALL TO PCG =       30
                               MATRIX PRECONDITIONING TYPE =        1
        RELAXATION FACTOR (ONLY USED WITH PRECOND. TYPE 1) =    0.10000E+01
 PARAMETER OF POLYNOMIAL PRECOND. = 2 (2) OR IS CALCULATED :        0
                         HEAD CHANGE CRITERION FOR CLOSURE =    0.10000E-04
                     RESIDUAL CHANGE CRITERION FOR CLOSURE =    0.10000E-04
            PCG HEAD AND RESIDUAL CHANGE PRINTOUT INTERVAL =      999
     PRINTING FROM SOLVER IS LIMITED(1) OR SUPPRESSED (>1) =        3
                            STEADY-STATE DAMPING PARAMETER =    0.10000E+01
                               TRANSIENT DAMPING PARAMETER =    0.10000E+01
1
                            STRESS PERIOD NO.    1, LENGTH =   1.000000    
                            -----------------------------------------------

                              NUMBER OF TIME STEPS =     1

                               MULTIPLIER FOR DELT =     1.000

                            INITIAL TIME STEP SIZE =   1.000000    

 WELL NO.  LAYER   ROW   COL   STRESS RATE         
 --------------------------------------------------
      1      1     18      4      -346.0    
      2      1      6     13      -5230.    
      3      1     18     13      -5230.    

      3 WELLS



                           RECHARGE
 READING ON UNIT   19 WITH FORMAT: (30E15.6)           
 
 SOLVING FOR HEAD 

 CELL CONVERSIONS FOR ITER.=  2  LAYER=  1  STEP=  1  PERIOD=  1   (ROW,COL)
    DRY( 18, 13)   

 OUTPUT CONTROL FOR STRESS PERIOD    1   TIME STEP    1
    PRINT HEAD FOR ALL LAYERS
    PRINT BUDGET
    SAVE HEAD FOR ALL LAYERS
    SAVE BUDGET
 UBDSV2 SAVING "   CONSTANT HEAD" ON UNIT  53 AT TIME STEP  1, STRESS PERIOD   1
 UBDSV1 SAVING "FLOW RIGHT FACE " ON UNIT  53 AT TIME STEP  1, STRESS PERIOD   1
 UBDSV1 SAVING "FLOW FRONT FACE " ON UNIT  53 AT TIME STEP  1, STRESS PERIOD   1
 UBDSV3 SAVING "        RECHARGE" ON UNIT  53 AT TIME STEP  1, STRESS PERIOD   1
1
              HEAD IN LAYER   1 AT END OF TIME STEP   1 IN STRESS PERIOD    1
  ---------------------------------------------------------------------------

            1           2           3           4           5           6           7           8           9          10
           11          12          13          14          15          16          17          18          19          20
           21          22          23          24          25          26          27          28          29          30
 ........................................................................................................................
   1    595.0       593.8       592.5       591.3       590.0       588.7       587.4       586.1       584.7       583.2    
        581.8       580.3       578.8       577.2       575.6       574.0       572.4       570.7       569.0       567.3    
        565.5       563.8       562.1       560.3       558.6       556.8       555.1       553.4       551.7       550.0    
   2    595.0       593.8       592.5       591.3       590.0       588.7       587.4       586.0       584.7       583.2    
        581.8       580.3       578.8       577.2       575.6       574.0       572.4       570.7       569.0       567.3    
        565.5       563.8       562.1       560.3       558.6       556.8       555.1       553.4       551.7       550.0    
   3    595.0       593.8       592.5       591.3       590.0       588.7       587.4       586.0       584.6       583.2    
        581.7       580.2       578.7       577.2       575.6       574.0       572.3       570.7       569.0       567.3    
        565.5       563.8       562.0       560.3       558.6       556.8       555.1       553.4       551.7       550.0    
   4    595.0       593.8       592.5       591.3       590.0       588.7       587.4       586.0       584.6       583.2    
        581.7       580.2       578.6       577.1       575.5       573.9       572.3       570.6       569.0       567.2    
        565.5       563.8       562.0       560.3       558.6       556.8       555.1       553.4       551.7       550.0    
   5    595.0       593.8       592.5       591.3       590.0       588.7       587.4       586.0       584.6       583.1    
        581.6       580.1       578.5       577.0       575.5       573.9       572.3       570.6       568.9       567.2    
        565.5       563.8       562.0       560.3       558.6       556.9       555.1       553.4       551.7       550.0    
   6    595.0       593.8       592.5       591.3       590.0       588.7       587.3       586.0       584.6       583.1    
        581.6       580.0       578.2       576.9       575.4       573.9       572.3       570.6       568.9       567.2    
        565.5       563.8       562.1       560.3       558.6       556.9       555.1       553.4       551.7       550.0    
   7    595.0       593.8       592.5       591.2       590.0       588.7       587.3       585.9       584.5       583.1    
        581.6       580.0       578.4       576.9       575.4       573.9       572.2       570.6       568.9       567.2    
        565.5       563.8       562.1       560.3       558.6       556.9       555.1       553.4       551.7       550.0    
   8    595.0       593.8       592.5       591.2       589.9       588.6       587.3       585.9       584.5       583.1    
        581.6       580.1       578.5       577.0       575.4       573.9       572.2       570.6       568.9       567.2    
        565.5       563.8       562.1       560.3       558.6       556.9       555.2       553.4       551.7       550.0    
   9    595.0       593.7       592.5       591.2       589.9       588.6       587.3       585.9       584.5       583.0    
        581.6       580.1       578.5       577.0       575.4       573.9       572.2       570.6       568.9       567.2    
        565.5       563.8       562.1       560.4       558.6       556.9       555.2       553.5       551.7       550.0    
  10    595.0       593.7       592.5       591.2       589.9       588.6       587.2       585.8       584.4       583.0    
        581.5       580.1       578.5       577.0       575.4       573.8       572.2       570.6       568.9       567.3    
        565.6       563.9       562.1       560.4       558.7       556.9       555.2       553.5       551.7       550.0    
  11    595.0       593.7       592.4       591.2       589.8       588.5       587.2       585.8       584.4       583.0    
        581.5       580.0       578.5       577.0       575.4       573.8       572.2       570.6       569.0       567.3    
        565.6       563.9       562.2       560.4       558.7       557.0       555.2       553.5       551.7       550.0    
  12    595.0       593.7       592.4       591.1       589.8       588.5       587.1       585.7       584.3       582.9    
        581.5       580.0       578.5       577.0       575.4       573.8       572.2       570.6       569.0       567.3    
        565.6       563.9       562.2       560.5       558.8       557.0       555.3       553.5       551.8       550.0    
  13    595.0       593.7       592.4       591.1       589.8       588.4       587.1       585.7       584.3       582.9    
        581.4       579.9       578.4       576.9       575.4       573.8       572.2       570.6       569.0       567.3    
        565.7       564.0       562.3       560.6       558.8       557.1       555.3       553.5       551.8       550.0    
  14    595.0       593.7       592.4       591.0       589.7       588.3       587.0       585.6       584.2       582.8    
        581.4       579.9       578.4       576.9       575.3       573.8       572.2       570.6       569.0       567.4    
        565.7       564.1       562.4       560.6       558.9       557.1       555.4       553.6       551.8       550.0    
  15    595.0       593.7       592.3       591.0       589.6       588.3       586.9       585.5       584.2       582.8    
        581.3       579.9       578.3       576.8       575.3       573.7       572.2       570.6       569.1       567.4    
        565.8       564.1       562.4       560.7       559.0       557.2       555.4       553.6       551.8       550.0    
  16    595.0       593.6       592.3       590.9       589.5       588.2       586.8       585.5       584.1       582.7    
        581.3       579.8       578.3       576.7       575.2       573.7       572.2       570.7       569.1       567.5    
        565.9       564.2       562.5       560.8       559.1       557.3       555.5       553.7       551.8       550.0    
  17    595.0       593.6       592.2       590.8       589.5       588.1       586.7       585.4       584.0       582.6    
        581.3       579.9       578.2       576.5       575.1       573.6       572.2       570.7       569.2       567.6    
        566.0       564.3       562.7       560.9       559.2       557.4       555.6       553.7       551.9       550.0    
  18    595.0       593.6       592.2       590.7       589.3       588.0       586.6       585.2       583.9       582.6    
        581.3       580.3     -1.0000E+30   575.9       574.9       573.6       572.2       570.7       569.2       567.7    
        566.1       564.5       562.8       561.1       559.3       557.5       555.7       553.8       551.9       550.0    
  19    595.0       593.5       592.1       590.7       589.2       587.9       586.5       585.1       583.7       582.4    
        581.1       579.7       578.0       576.3       575.0       573.6       572.2       570.8       569.3       567.8    
        566.2       564.6       562.9       561.2       559.5       557.6       555.8       553.9       552.0       550.0    
  20    595.0       593.5       592.0       590.6       589.1       587.7       586.3       584.9       583.6       582.2    
        580.9       579.5       578.0       576.5       575.1       573.7       572.3       570.9       569.4       567.9    
        566.4       564.8       563.1       561.4       559.6       557.8       555.9       554.0       552.0       550.0    
  21    595.0       593.5       592.0       590.5       589.0       587.6       586.2       584.8       583.4       582.1    
        580.7       579.3       577.9       576.5       575.1       573.7       572.4       571.0       569.5       568.0    
        566.5       564.9       563.3       561.6       559.8       558.0       556.0       554.1       552.1       550.0    
  22    595.0       593.4       591.9       590.4       588.9       587.4       586.0       584.6       583.3       581.9    
        580.6       579.2       577.9       576.5       575.1       573.8       572.4       571.1       569.6       568.2    
        566.7       565.1       563.5       561.8       560.0       558.1       556.2       554.2       552.1       550.0    
  23    595.0       593.4       591.8       590.3       588.7       587.3       585.8       584.5       583.1       581.8    
        580.4       579.1       577.8       576.5       575.2       573.8       572.5       571.2       569.8       568.3    
        566.8       565.3       563.7       562.0       560.2       558.3       556.3       554.3       552.2       550.0    
  24    595.0       593.3       591.7       590.1       588.6       587.1       585.7       584.3       582.9       581.6    
        580.3       579.0       577.7       576.5       575.2       573.9       572.6       571.3       569.9       568.5    
        567.0       565.5       563.9       562.2       560.4       558.5       556.5       554.4       552.2       550.0    
  25    595.0       593.3       591.6       590.0       588.5       587.0       585.5       584.1       582.8       581.5    
        580.2       578.9       577.7       576.4       575.2       573.9       572.6       571.3       570.0       568.6    
        567.2       565.7       564.1       562.4       560.6       558.7       556.7       554.5       552.3       550.0    
  26    595.0       593.3       591.6       589.9       588.4       586.8       585.4       584.0       582.7       581.4    
        580.1       578.9       577.6       576.4       575.2       573.9       572.7       571.4       570.1       568.8    
        567.3       565.8       564.3       562.6       560.8       558.9       556.8       554.7       552.4       550.0    
  27    595.0       593.2       591.5       589.8       588.3       586.7       585.3       583.9       582.6       581.3    
        580.0       578.8       577.6       576.4       575.2       574.0       572.7       571.5       570.2       568.9    
        567.5       566.0       564.4       562.8       561.0       559.0       557.0       554.8       552.4       550.0    
  28    595.0       593.2       591.5       589.8       588.2       586.6       585.2       583.8       582.5       581.2    
        580.0       578.8       577.6       576.4       575.2       574.0       572.8       571.5       570.3       569.0    
        567.6       566.1       564.6       562.9       561.1       559.2       557.1       554.8       552.5       550.0    
  29    595.0       593.2       591.4       589.7       588.1       586.6       585.1       583.8       582.4       581.2    
        579.9       578.7       577.5       576.4       575.2       574.0       572.8       571.6       570.3       569.0    
        567.6       566.2       564.6       563.0       561.2       559.3       557.2       554.9       552.5       550.0    
  30    595.0       593.2       591.4       589.7       588.1       586.6       585.1       583.7       582.4       581.1    
        579.9       578.7       577.5       576.4       575.2       574.0       572.8       571.6       570.4       569.0    
        567.7       566.2       564.7       563.0       561.2       559.3       557.2       554.9       552.5       550.0    

 HEAD WILL BE SAVED ON UNIT   51 AT END OF TIME STEP    1, STRESS PERIOD    1
1
  VOLUMETRIC BUDGET FOR ENTIRE MODEL AT END OF TIME STEP    1, STRESS PERIOD   1
  ------------------------------------------------------------------------------

     CUMULATIVE VOLUMES      L**3       RATES FOR THIS TIME STEP      L**3/T
     ------------------                 ------------------------

           IN:                                      IN:
           ---                                      ---
             STORAGE =           0.0000               STORAGE =           0.0000
       CONSTANT HEAD =      139036.8906         CONSTANT HEAD =      139036.8906
               WELLS =           0.0000                 WELLS =           0.0000
            RECHARGE =         631.0000              RECHARGE =         631.0000

            TOTAL IN =      139667.8906              TOTAL IN =      139667.8906

          OUT:                                     OUT:
          ----                                     ----
             STORAGE =           0.0000               STORAGE =           0.0000
       CONSTANT HEAD =      134091.8906         CONSTANT HEAD =      134091.8906
               WELLS =        5576.0000                 WELLS =        5576.0000
            RECHARGE =           0.0000              RECHARGE =           0.0000

           TOTAL OUT =      139667.8906             TOTAL OUT =      139667.8906

            IN - OUT =           0.0000              IN - OUT =           0.0000

 PERCENT DISCREPANCY =           0.00     PERCENT DISCREPANCY =           0.00






         TIME SUMMARY AT END OF TIME STEP    1 IN STRESS PERIOD    1
                    SECONDS     MINUTES      HOURS       DAYS        YEARS
                    -----------------------------------------------------------
   TIME STEP LENGTH  86400.      1440.0      24.000      1.0000     2.73785E-03
 STRESS PERIOD TIME  86400.      1440.0      24.000      1.0000     2.73785E-03
         TOTAL TIME  86400.      1440.0      24.000      1.0000     2.73785E-03
1

 Run end date and time (yyyy/mm/dd hh:mm:ss): 2026/02/12  2:49:17
 Elapsed run time:  0.010 Seconds

