                                  MODFLOW-2005     
      U.S. GEOLOGICAL SURVEY MODULAR FINITE-DIFFERENCE GROUND-WATER FLOW MODEL
                            VERSION 1.12.00 2/3/2017

 LIST FILE: Scenario3_flopy.list
                         UNIT    2

 OPENING Scenario3_flopy.dis
 FILE TYPE:DIS   UNIT   11   STATUS:OLD    
 FORMAT:FORMATTED              ACCESS:SEQUENTIAL          

 OPENING Scenario3_flopy.bas
 FILE TYPE:BAS6   UNIT   13   STATUS:OLD    
 FORMAT:FORMATTED              ACCESS:SEQUENTIAL          

 OPENING Scenario3_flopy.bcf
 FILE TYPE:BCF6   UNIT   15   STATUS:OLD    
 FORMAT:FORMATTED              ACCESS:SEQUENTIAL          

 OPENING Scenario3_flopy.oc
 FILE TYPE:OC   UNIT   14   STATUS:OLD    
 FORMAT:FORMATTED              ACCESS:SEQUENTIAL          

 OPENING Scenario3_flopy.pcg
 FILE TYPE:PCG   UNIT   27   STATUS:OLD    
 FORMAT:FORMATTED              ACCESS:SEQUENTIAL          

 OPENING Scenario3_flopy.wel
 FILE TYPE:WEL   UNIT   20   STATUS:OLD    
 FORMAT:FORMATTED              ACCESS:SEQUENTIAL          

 OPENING Scenario3_flopy.rch
 FILE TYPE:RCH   UNIT   19   STATUS:OLD    
 FORMAT:FORMATTED              ACCESS:SEQUENTIAL          

 OPENING Scenario3_flopy.cbc
 FILE TYPE:DATA(BINARY)   UNIT   53   STATUS:REPLACE
 FORMAT:UNFORMATTED            ACCESS:STREAM              

 OPENING Scenario3_flopy.hds
 FILE TYPE:DATA(BINARY)   UNIT   51   STATUS:REPLACE
 FORMAT:UNFORMATTED            ACCESS:STREAM              

 BAS -- BASIC PACKAGE, VERSION 7, 5/2/2005 INPUT READ FROM UNIT   13
 
 MODFLOW was compiled using mixed precision
 Precision of REAL variables:           6
 Precision of DOUBLE PRECISION variables:          15

 DISCRETIZATION INPUT DATA READ FROM UNIT   11
 # DIS package for MODFLOW-2005 generated by Flopy 3.9.5
    1 LAYERS        30 ROWS        30 COLUMNS
    1 STRESS PERIOD(S) IN SIMULATION
 MODEL TIME UNIT IS DAYS
 MODEL LENGTH UNIT IS METERS
  Confining bed flag for each layer:
   0

                     DELR =   100.000    

                     DELC =   100.000    

 TOP ELEVATION OF LAYER 1 =   500.000    

   MODEL LAYER BOTTOM EL. =   0.00000     FOR LAYER   1


 STRESS PERIOD     LENGTH       TIME STEPS     MULTIPLIER FOR DELT    SS FLAG
 ----------------------------------------------------------------------------
        1         1.000000          1                    1.000         SS

 STEADY-STATE SIMULATION



 
 # BAS6 package for MODFLOW-2005 generated by Flopy 3.9.5                        
 THE FREE FORMAT OPTION HAS BEEN SELECTED



                     BOUNDARY ARRAY FOR LAYER   1
 READING ON UNIT   13 WITH FORMAT: (30I10)             

 AQUIFER HEAD WILL BE SET TO  -999.99     AT ALL NO-FLOW NODES (IBOUND=0).



                       INITIAL HEAD FOR LAYER   1
 READING ON UNIT   13 WITH FORMAT: (30E15.6)           
 # OC package for MODFLOW-2005 generated by Flopy 3.9.5

 OUTPUT CONTROL IS SPECIFIED ONLY AT TIME STEPS FOR WHICH OUTPUT IS DESIRED
 COMPACT CELL-BY-CELL BUDGET FILES WILL BE WRITTEN
 AUXILIARY DATA WILL BE SAVED IN CELL-BY-CELL BUDGET FILES
 HEAD PRINT FORMAT CODE IS   0    DRAWDOWN PRINT FORMAT CODE IS   0
 HEADS WILL BE SAVED ON UNIT   51    DRAWDOWNS WILL BE SAVED ON UNIT    0

 BCF -- BLOCK-CENTERED FLOW PACKAGE, VERSION 7, 5/2/2005
         INPUT READ FROM UNIT 15
 STEADY-STATE SIMULATION
 CELL-BY-CELL FLOWS WILL BE SAVED ON UNIT 53
 HEAD AT CELLS THAT CONVERT TO DRY= -0.10000E+31
 WETTING CAPABILITY IS NOT ACTIVE
      LAYER  LAYER-TYPE CODE     INTERBLOCK T
      --------------------------------------------
         1            3          0 -- HARMONIC    

 COLUMN TO ROW ANISOTROPY =   1.00000    



              HYD. COND. ALONG ROWS FOR LAYER   1
 READING ON UNIT   15 WITH FORMAT: (30E15.6)           

 WEL -- WELL PACKAGE, VERSION 7, 5/2/2005 INPUT READ FROM UNIT   20
 # WEL package for MODFLOW-2005 generated by Flopy 3.9.5
 No named parameters
 MAXIMUM OF      3 ACTIVE WELLS AT ONE TIME


     0 Well parameters

 RCH -- RECHARGE PACKAGE, VERSION 7, 5/2/2005 INPUT READ FROM UNIT   19
 # RCH package for MODFLOW-2005 generated by Flopy 3.9.5
 No named parameters
 OPTION 1 -- RECHARGE TO TOP LAYER
 CELL-BY-CELL FLOWS WILL BE SAVED ON UNIT   53


     0 Recharge parameters

 PCG -- CONJUGATE-GRADIENT SOLUTION PACKAGE, VERSION 7, 5/2/2005
 # PCG package for MODFLOW-2005 generated by Flopy 3.9.5
 MAXIMUM OF     50 CALLS OF SOLUTION ROUTINE
 MAXIMUM OF     30 INTERNAL ITERATIONS PER CALL TO SOLUTION ROUTINE
 MATRIX PRECONDITIONING TYPE :    1



                                    SOLUTION BY THE CONJUGATE-GRADIENT METHOD
                                   -------------------------------------------
                    MAXIMUM NUMBER OF CALLS TO PCG ROUTINE =       50
                        MAXIMUM ITERATIONS PER CALL TO PCG =       30
                               MATRIX PRECONDITIONING TYPE =        1
        RELAXATION FACTOR (ONLY USED WITH PRECOND. TYPE 1) =    0.10000E+01
 PARAMETER OF POLYNOMIAL PRECOND. = 2 (2) OR IS CALCULATED :        0
                         HEAD CHANGE CRITERION FOR CLOSURE =    0.10000E-04
                     RESIDUAL CHANGE CRITERION FOR CLOSURE =    0.10000E-04
            PCG HEAD AND RESIDUAL CHANGE PRINTOUT INTERVAL =      999
     PRINTING FROM SOLVER IS LIMITED(1) OR SUPPRESSED (>1) =        3
                            STEADY-STATE DAMPING PARAMETER =    0.10000E+01
                               TRANSIENT DAMPING PARAMETER =    0.10000E+01
1
                            STRESS PERIOD NO.    1, LENGTH =   1.000000    
                            -----------------------------------------------

                              NUMBER OF TIME STEPS =     1

                               MULTIPLIER FOR DELT =     1.000

                            INITIAL TIME STEP SIZE =   1.000000    

 WELL NO.  LAYER   ROW   COL   STRESS RATE         
 --------------------------------------------------
      1      1     20      6      -346.0    
      2      1      4     10      -5230.    
      3      1     22     18      -5230.    

      3 WELLS



                           RECHARGE
 READING ON UNIT   19 WITH FORMAT: (30E15.6)           
 
 SOLVING FOR HEAD 

 CELL CONVERSIONS FOR ITER.=  2  LAYER=  1  STEP=  1  PERIOD=  1   (ROW,COL)
    DRY( 21, 17)   DRY( 21, 18)   DRY( 21, 19)   DRY( 22, 17)   DRY( 22, 18)   
    DRY( 22, 19)   DRY( 23, 17)   DRY( 23, 18)   DRY( 23, 19)   DRY( 24, 17)   
    DRY( 24, 18)   DRY( 24, 19)   

 OUTPUT CONTROL FOR STRESS PERIOD    1   TIME STEP    1
    PRINT HEAD FOR ALL LAYERS
    PRINT BUDGET
    SAVE HEAD FOR ALL LAYERS
    SAVE BUDGET
 UBDSV2 SAVING "   CONSTANT HEAD" ON UNIT  53 AT TIME STEP  1, STRESS PERIOD   1
 UBDSV1 SAVING "FLOW RIGHT FACE " ON UNIT  53 AT TIME STEP  1, STRESS PERIOD   1
 UBDSV1 SAVING "FLOW FRONT FACE " ON UNIT  53 AT TIME STEP  1, STRESS PERIOD   1
 UBDSV3 SAVING "        RECHARGE" ON UNIT  53 AT TIME STEP  1, STRESS PERIOD   1
1
              HEAD IN LAYER   1 AT END OF TIME STEP   1 IN STRESS PERIOD    1
  ---------------------------------------------------------------------------

            1           2           3           4           5           6           7           8           9          10
           11          12          13          14          15          16          17          18          19          20
           21          22          23          24          25          26          27          28          29          30
 ........................................................................................................................
   1    595.0       593.8       592.5       591.2       590.0       588.7       587.3       586.0       584.6       583.2    
        581.7       580.3       578.8       577.3       575.7       574.1       572.5       570.8       569.1       567.4    
        565.6       563.9       562.1       560.4       558.6       556.9       555.2       553.4       551.7       550.0    
   2    595.0       593.8       592.5       591.2       590.0       588.7       587.3       585.9       584.5       583.1    
        581.7       580.3       578.8       577.3       575.7       574.1       572.5       570.8       569.1       567.4    
        565.6       563.9       562.1       560.4       558.6       556.9       555.2       553.4       551.7       550.0    
   3    595.0       593.8       592.5       591.2       590.0       588.7       587.3       585.9       584.5       583.0    
        581.7       580.3       578.8       577.3       575.7       574.1       572.5       570.8       569.1       567.4    
        565.6       563.9       562.1       560.4       558.6       556.9       555.2       553.4       551.7       550.0    
   4    595.0       593.8       592.5       591.2       590.0       588.7       587.3       585.9       584.4       582.8    
        581.6       580.2       578.8       577.3       575.7       574.1       572.5       570.8       569.1       567.4    
        565.6       563.9       562.1       560.4       558.6       556.9       555.2       553.4       551.7       550.0    
   5    595.0       593.8       592.5       591.2       590.0       588.7       587.3       585.9       584.5       583.0    
        581.7       580.2       578.8       577.3       575.7       574.1       572.5       570.8       569.1       567.4    
        565.6       563.9       562.1       560.4       558.6       556.9       555.2       553.4       551.7       550.0    
   6    595.0       593.8       592.5       591.2       590.0       588.7       587.3       585.9       584.5       583.1    
        581.7       580.3       578.8       577.3       575.7       574.1       572.5       570.8       569.1       567.4    
        565.6       563.9       562.1       560.4       558.6       556.9       555.2       553.4       551.7       550.0    
   7    595.0       593.8       592.5       591.2       590.0       588.7       587.3       586.0       584.6       583.2    
        581.7       580.3       578.8       577.3       575.7       574.1       572.4       570.8       569.1       567.4    
        565.6       563.9       562.1       560.4       558.6       556.9       555.2       553.4       551.7       550.0    
   8    595.0       593.8       592.5       591.2       590.0       588.7       587.3       586.0       584.6       583.2    
        581.7       580.3       578.8       577.3       575.7       574.1       572.4       570.8       569.1       567.4    
        565.6       563.9       562.1       560.4       558.7       556.9       555.2       553.4       551.7       550.0    
   9    595.0       593.8       592.5       591.2       589.9       588.6       587.3       586.0       584.6       583.2    
        581.7       580.3       578.8       577.2       575.7       574.1       572.4       570.8       569.1       567.4    
        565.6       563.9       562.2       560.4       558.7       556.9       555.2       553.5       551.7       550.0    
  10    595.0       593.7       592.5       591.2       589.9       588.6       587.3       585.9       584.6       583.2    
        581.7       580.3       578.8       577.2       575.7       574.1       572.4       570.8       569.1       567.4    
        565.6       563.9       562.2       560.4       558.7       556.9       555.2       553.5       551.7       550.0    
  11    595.0       593.7       592.5       591.2       589.9       588.6       587.3       585.9       584.5       583.1    
        581.7       580.2       578.7       577.2       575.7       574.1       572.4       570.8       569.1       567.4    
        565.7       563.9       562.2       560.5       558.7       557.0       555.2       553.5       551.7       550.0    
  12    595.0       593.7       592.5       591.2       589.9       588.6       587.2       585.9       584.5       583.1    
        581.7       580.2       578.7       577.2       575.6       574.1       572.4       570.8       569.1       567.4    
        565.7       564.0       562.2       560.5       558.7       557.0       555.2       553.5       551.8       550.0    
  13    595.0       593.7       592.4       591.1       589.8       588.5       587.2       585.8       584.5       583.1    
        581.6       580.2       578.7       577.2       575.6       574.1       572.4       570.8       569.1       567.4    
        565.7       564.0       562.2       560.5       558.8       557.0       555.3       553.5       551.8       550.0    
  14    595.0       593.7       592.4       591.1       589.8       588.5       587.1       585.8       584.4       583.0    
        581.6       580.2       578.7       577.2       575.7       574.1       572.5       570.8       569.1       567.4    
        565.7       564.0       562.3       560.5       558.8       557.1       555.3       553.5       551.8       550.0    
  15    595.0       593.7       592.4       591.1       589.7       588.4       587.1       585.7       584.4       583.0    
        581.6       580.2       578.7       577.2       575.7       574.1       572.5       570.8       569.1       567.4    
        565.7       564.0       562.3       560.6       558.8       557.1       555.3       553.6       551.8       550.0    
  16    595.0       593.7       592.3       591.0       589.7       588.3       587.0       585.7       584.3       582.9    
        581.5       580.1       578.7       577.2       575.7       574.1       572.5       570.8       569.2       567.4    
        565.7       564.0       562.3       560.6       558.9       557.1       555.4       553.6       551.8       550.0    
  17    595.0       593.7       592.3       591.0       589.6       588.3       586.9       585.6       584.2       582.9    
        581.5       580.1       578.7       577.3       575.8       574.2       572.6       570.9       569.2       567.4    
        565.7       564.0       562.3       560.6       558.9       557.2       555.4       553.6       551.8       550.0    
  18    595.0       593.6       592.3       590.9       589.5       588.2       586.8       585.5       584.2       582.8    
        581.5       580.2       578.8       577.4       575.9       574.4       572.7       570.9       569.1       567.3    
        565.6       564.0       562.3       560.6       559.0       557.2       555.5       553.7       551.8       550.0    
  19    595.0       593.6       592.2       590.8       589.4       588.1       586.7       585.4       584.1       582.8    
        581.5       580.2       578.9       577.6       576.2       574.6       572.8       570.9       569.0       567.2    
        565.5       563.9       562.3       560.7       559.0       557.3       555.5       553.7       551.9       550.0    
  20    595.0       593.6       592.1       590.7       589.3       587.9       586.6       585.3       584.0       582.8    
        581.5       580.3       579.0       577.8       576.6       575.1       573.0       571.0       568.9       566.7    
        565.2       563.7       562.2       560.7       559.0       557.3       555.6       553.8       551.9       550.0    
  21    595.0       593.5       592.1       590.6       589.2       587.9       586.5       585.2       584.0       582.7    
        581.5       580.3       579.2       578.1       577.1       576.4     -1.0000E+30 -1.0000E+30 -1.0000E+30   565.5    
        564.7       563.5       562.2       560.7       559.1       557.4       555.7       553.8       551.9       550.0    
  22    595.0       593.5       592.0       590.6       589.1       587.8       586.4       585.1       583.9       582.6    
        581.5       580.3       579.3       578.3       577.5       577.0     -1.0000E+30 -1.0000E+30 -1.0000E+30   565.0    
        564.4       563.4       562.2       560.8       559.2       557.5       555.8       553.9       552.0       550.0    
  23    595.0       593.5       592.0       590.5       589.0       587.6       586.3       585.0       583.8       582.6    
        581.4       580.3       579.2       578.3       577.5       577.1     -1.0000E+30 -1.0000E+30 -1.0000E+30   565.1    
        564.5       563.6       562.3       560.9       559.4       557.7       555.9       554.0       552.0       550.0    
  24    595.0       593.4       591.9       590.4       588.9       587.5       586.2       584.9       583.6       582.5    
        581.3       580.2       579.1       578.2       577.3       576.6     -1.0000E+30 -1.0000E+30 -1.0000E+30   565.8    
        565.0       563.9       562.6       561.2       559.6       557.9       556.1       554.1       552.1       550.0    
  25    595.0       593.4       591.8       590.3       588.8       587.4       586.1       584.8       583.5       582.3    
        581.2       580.1       579.0       577.9       576.8       575.5       573.6       571.7       569.7       567.4    
        565.8       564.4       563.0       561.5       559.8       558.1       556.2       554.2       552.2       550.0    
  26    595.0       593.4       591.8       590.2       588.7       587.3       585.9       584.6       583.4       582.2    
        581.0       579.9       578.8       577.6       576.4       575.1       573.4       571.7       569.9       568.1    
        566.4       564.9       563.4       561.8       560.1       558.3       556.4       554.4       552.2       550.0    
  27    595.0       593.3       591.7       590.1       588.6       587.2       585.8       584.5       583.3       582.1    
        580.9       579.8       578.6       577.4       576.2       574.8       573.4       571.8       570.1       568.5    
        566.9       565.3       563.7       562.1       560.4       558.5       556.6       554.5       552.3       550.0    
  28    595.0       593.3       591.7       590.1       588.6       587.1       585.7       584.4       583.2       582.0    
        580.8       579.7       578.5       577.3       576.0       574.7       573.3       571.8       570.3       568.7    
        567.2       565.6       564.0       562.3       560.6       558.7       556.7       554.6       552.3       550.0    
  29    595.0       593.3       591.6       590.0       588.5       587.1       585.7       584.4       583.1       581.9    
        580.8       579.6       578.4       577.2       576.0       574.7       573.3       571.9       570.4       568.9    
        567.3       565.8       564.2       562.5       560.7       558.8       556.8       554.7       552.4       550.0    
  30    595.0       593.3       591.6       590.0       588.5       587.0       585.7       584.4       583.1       581.9    
        580.7       579.5       578.4       577.2       575.9       574.6       573.3       571.9       570.4       568.9    
        567.4       565.9       564.3       562.6       560.8       558.9       556.9       554.7       552.4       550.0    

 HEAD WILL BE SAVED ON UNIT   51 AT END OF TIME STEP    1, STRESS PERIOD    1
1
  VOLUMETRIC BUDGET FOR ENTIRE MODEL AT END OF TIME STEP    1, STRESS PERIOD   1
  ------------------------------------------------------------------------------

     CUMULATIVE VOLUMES      L**3       RATES FOR THIS TIME STEP      L**3/T
     ------------------                 ------------------------

           IN:                                      IN:
           ---                                      ---
             STORAGE =           0.0000               STORAGE =           0.0000
       CONSTANT HEAD =      137213.5000         CONSTANT HEAD =      137213.5000
               WELLS =           0.0000                 WELLS =           0.0000
            RECHARGE =         623.0000              RECHARGE =         623.0000

            TOTAL IN =      137836.5000              TOTAL IN =      137836.5000

          OUT:                                     OUT:
          ----                                     ----
             STORAGE =           0.0000               STORAGE =           0.0000
       CONSTANT HEAD =      132260.4844         CONSTANT HEAD =      132260.4844
               WELLS =        5576.0000                 WELLS =        5576.0000
            RECHARGE =           0.0000              RECHARGE =           0.0000

           TOTAL OUT =      137836.4844             TOTAL OUT =      137836.4844

            IN - OUT =       1.5625E-02              IN - OUT =       1.5625E-02

 PERCENT DISCREPANCY =           0.00     PERCENT DISCREPANCY =           0.00






         TIME SUMMARY AT END OF TIME STEP    1 IN STRESS PERIOD    1
                    SECONDS     MINUTES      HOURS       DAYS        YEARS
                    -----------------------------------------------------------
   TIME STEP LENGTH  86400.      1440.0      24.000      1.0000     2.73785E-03
 STRESS PERIOD TIME  86400.      1440.0      24.000      1.0000     2.73785E-03
         TOTAL TIME  86400.      1440.0      24.000      1.0000     2.73785E-03
1

 Run end date and time (yyyy/mm/dd hh:mm:ss): 2026/02/11 20:41:34
 Elapsed run time:  0.019 Seconds

