                                  MODFLOW-2005     
      U.S. GEOLOGICAL SURVEY MODULAR FINITE-DIFFERENCE GROUND-WATER FLOW MODEL
                            VERSION 1.12.00 2/3/2017

 LIST FILE: BoxModel_well.list
                         UNIT    2

 OPENING BoxModel_well.dis
 FILE TYPE:DIS   UNIT   11   STATUS:OLD    
 FORMAT:FORMATTED              ACCESS:SEQUENTIAL          

 OPENING BoxModel_well.bas
 FILE TYPE:BAS6   UNIT   13   STATUS:OLD    
 FORMAT:FORMATTED              ACCESS:SEQUENTIAL          

 OPENING BoxModel_well.bcf
 FILE TYPE:BCF6   UNIT   15   STATUS:OLD    
 FORMAT:FORMATTED              ACCESS:SEQUENTIAL          

 OPENING BoxModel_well.oc
 FILE TYPE:OC   UNIT   14   STATUS:OLD    
 FORMAT:FORMATTED              ACCESS:SEQUENTIAL          

 OPENING BoxModel_well.pcg
 FILE TYPE:PCG   UNIT   27   STATUS:OLD    
 FORMAT:FORMATTED              ACCESS:SEQUENTIAL          

 OPENING BoxModel_well.wel
 FILE TYPE:WEL   UNIT   20   STATUS:OLD    
 FORMAT:FORMATTED              ACCESS:SEQUENTIAL          

 OPENING BoxModel_well.cbc
 FILE TYPE:DATA(BINARY)   UNIT   53   STATUS:REPLACE
 FORMAT:UNFORMATTED            ACCESS:STREAM              

 OPENING BoxModel_well.hds
 FILE TYPE:DATA(BINARY)   UNIT   51   STATUS:REPLACE
 FORMAT:UNFORMATTED            ACCESS:STREAM              

 BAS -- BASIC PACKAGE, VERSION 7, 5/2/2005 INPUT READ FROM UNIT   13
 
 MODFLOW was compiled using mixed precision
 Precision of REAL variables:           6
 Precision of DOUBLE PRECISION variables:          15

 DISCRETIZATION INPUT DATA READ FROM UNIT   11
 # DIS package for MODFLOW-2005 generated by Flopy 3.9.5
    1 LAYERS        25 ROWS        25 COLUMNS
    1 STRESS PERIOD(S) IN SIMULATION
 MODEL TIME UNIT IS DAYS
 MODEL LENGTH UNIT IS METERS
  Confining bed flag for each layer:
   0

                     DELR =   100.000    

                     DELC =   100.000    

 TOP ELEVATION OF LAYER 1 =   10.0000    

   MODEL LAYER BOTTOM EL. =   0.00000     FOR LAYER   1


 STRESS PERIOD     LENGTH       TIME STEPS     MULTIPLIER FOR DELT    SS FLAG
 ----------------------------------------------------------------------------
        1         1.000000          1                    1.000         SS

 STEADY-STATE SIMULATION



 
 # BAS6 package for MODFLOW-2005 generated by Flopy 3.9.5                        
 THE FREE FORMAT OPTION HAS BEEN SELECTED



                     BOUNDARY ARRAY FOR LAYER   1
 READING ON UNIT   13 WITH FORMAT: (25I10)             

 AQUIFER HEAD WILL BE SET TO  -999.99     AT ALL NO-FLOW NODES (IBOUND=0).



                       INITIAL HEAD FOR LAYER   1
 READING ON UNIT   13 WITH FORMAT: (25E15.6)           
 # OC package for MODFLOW-2005 generated by Flopy 3.9.5

 OUTPUT CONTROL IS SPECIFIED ONLY AT TIME STEPS FOR WHICH OUTPUT IS DESIRED
 COMPACT CELL-BY-CELL BUDGET FILES WILL BE WRITTEN
 AUXILIARY DATA WILL BE SAVED IN CELL-BY-CELL BUDGET FILES
 HEAD PRINT FORMAT CODE IS   0    DRAWDOWN PRINT FORMAT CODE IS   0
 HEADS WILL BE SAVED ON UNIT   51    DRAWDOWNS WILL BE SAVED ON UNIT    0

 BCF -- BLOCK-CENTERED FLOW PACKAGE, VERSION 7, 5/2/2005
         INPUT READ FROM UNIT 15
 STEADY-STATE SIMULATION
 CELL-BY-CELL FLOWS WILL BE SAVED ON UNIT 53
 HEAD AT CELLS THAT CONVERT TO DRY= -0.10000E+31
 WETTING CAPABILITY IS NOT ACTIVE
      LAYER  LAYER-TYPE CODE     INTERBLOCK T
      --------------------------------------------
         1            3          0 -- HARMONIC    

 COLUMN TO ROW ANISOTROPY =   1.00000    



              HYD. COND. ALONG ROWS FOR LAYER   1
 READING ON UNIT   15 WITH FORMAT: (25E15.6)           

 WEL -- WELL PACKAGE, VERSION 7, 5/2/2005 INPUT READ FROM UNIT   20
 # WEL package for MODFLOW-2005 generated by Flopy 3.9.5
 No named parameters
 MAXIMUM OF      2 ACTIVE WELLS AT ONE TIME


     0 Well parameters

 PCG -- CONJUGATE-GRADIENT SOLUTION PACKAGE, VERSION 7, 5/2/2005
 # PCG package for MODFLOW-2005 generated by Flopy 3.9.5
 MAXIMUM OF     50 CALLS OF SOLUTION ROUTINE
 MAXIMUM OF     30 INTERNAL ITERATIONS PER CALL TO SOLUTION ROUTINE
 MATRIX PRECONDITIONING TYPE :    1



                                    SOLUTION BY THE CONJUGATE-GRADIENT METHOD
                                   -------------------------------------------
                    MAXIMUM NUMBER OF CALLS TO PCG ROUTINE =       50
                        MAXIMUM ITERATIONS PER CALL TO PCG =       30
                               MATRIX PRECONDITIONING TYPE =        1
        RELAXATION FACTOR (ONLY USED WITH PRECOND. TYPE 1) =    0.10000E+01
 PARAMETER OF POLYNOMIAL PRECOND. = 2 (2) OR IS CALCULATED :        0
                         HEAD CHANGE CRITERION FOR CLOSURE =    0.10000E-04
                     RESIDUAL CHANGE CRITERION FOR CLOSURE =    0.10000E-04
            PCG HEAD AND RESIDUAL CHANGE PRINTOUT INTERVAL =      999
     PRINTING FROM SOLVER IS LIMITED(1) OR SUPPRESSED (>1) =        3
                            STEADY-STATE DAMPING PARAMETER =    0.10000E+01
                               TRANSIENT DAMPING PARAMETER =    0.10000E+01
1
                            STRESS PERIOD NO.    1, LENGTH =   1.000000    
                            -----------------------------------------------

                              NUMBER OF TIME STEPS =     1

                               MULTIPLIER FOR DELT =     1.000

                            INITIAL TIME STEP SIZE =   1.000000    

 WELL NO.  LAYER   ROW   COL   STRESS RATE         
 --------------------------------------------------
      1      1     11     16      -8.000    
      2      1     13     13      -10.00    

      2 WELLS
 
 SOLVING FOR HEAD 

 OUTPUT CONTROL FOR STRESS PERIOD    1   TIME STEP    1
    PRINT HEAD FOR ALL LAYERS
    PRINT BUDGET
    SAVE HEAD FOR ALL LAYERS
    SAVE BUDGET
 UBDSV2 SAVING "   CONSTANT HEAD" ON UNIT  53 AT TIME STEP  1, STRESS PERIOD   1
 UBDSV1 SAVING "FLOW RIGHT FACE " ON UNIT  53 AT TIME STEP  1, STRESS PERIOD   1
 UBDSV1 SAVING "FLOW FRONT FACE " ON UNIT  53 AT TIME STEP  1, STRESS PERIOD   1
1
              HEAD IN LAYER   1 AT END OF TIME STEP   1 IN STRESS PERIOD    1
  ---------------------------------------------------------------------------

            1           2           3           4           5           6           7           8           9          10
           11          12          13          14          15          16          17          18          19          20
           21          22          23          24          25
 ........................................................................................................................
   1    10.00       9.971       9.942       9.914       9.886       9.860       9.835       9.811       9.791       9.773    
        9.759       9.748       9.742       9.741       9.745       9.755       9.769       9.788       9.811       9.837    
        9.867       9.898       9.931       9.965       10.00    
   2    10.00       9.971       9.942       9.913       9.885       9.858       9.833       9.809       9.788       9.769    
        9.755       9.744       9.738       9.736       9.740       9.750       9.764       9.783       9.807       9.834    
        9.864       9.896       9.930       9.965       10.00    
   3    10.00       9.970       9.940       9.911       9.883       9.855       9.829       9.804       9.782       9.762    
        9.747       9.735       9.728       9.726       9.730       9.739       9.755       9.775       9.800       9.828    
        9.860       9.893       9.928       9.964       10.00    
   4    10.00       9.969       9.939       9.909       9.879       9.850       9.823       9.797       9.773       9.752    
        9.734       9.721       9.713       9.710       9.714       9.724       9.740       9.762       9.789       9.819    
        9.853       9.888       9.925       9.962       10.00    
   5    10.00       9.968       9.937       9.906       9.875       9.845       9.815       9.787       9.761       9.738    
        9.718       9.702       9.692       9.688       9.691       9.701       9.720       9.744       9.774       9.808    
        9.844       9.882       9.921       9.960       10.00    
   6    10.00       9.967       9.935       9.902       9.870       9.838       9.806       9.776       9.747       9.720    
        9.697       9.678       9.664       9.658       9.660       9.672       9.692       9.721       9.755       9.793    
        9.833       9.874       9.916       9.958       10.00    
   7    10.00       9.966       9.932       9.898       9.864       9.830       9.796       9.763       9.730       9.700    
        9.672       9.648       9.630       9.620       9.620       9.632       9.657       9.692       9.733       9.776    
        9.821       9.866       9.911       9.955       10.00    
   8    10.00       9.965       9.930       9.895       9.859       9.822       9.786       9.749       9.712       9.676    
        9.642       9.611       9.587       9.572       9.568       9.580       9.612       9.657       9.707       9.758    
        9.808       9.857       9.905       9.953       10.00    
   9    10.00       9.964       9.928       9.891       9.853       9.815       9.775       9.735       9.693       9.650    
        9.608       9.569       9.536       9.513       9.500       9.506       9.555       9.617       9.680       9.739    
        9.796       9.849       9.901       9.951       10.00    
  10    10.00       9.963       9.926       9.888       9.849       9.808       9.766       9.721       9.674       9.623    
        9.571       9.519       9.474       9.442       9.413       9.389       9.482       9.575       9.655       9.724    
        9.786       9.843       9.897       9.949       10.00    
  11    10.00       9.963       9.925       9.886       9.845       9.803       9.759       9.710       9.657       9.598    
        9.532       9.462       9.399       9.370       9.318       9.149       9.410       9.546       9.641       9.716    
        9.781       9.840       9.895       9.948       10.00    
  12    10.00       9.962       9.924       9.885       9.844       9.801       9.755       9.704       9.647       9.579    
        9.498       9.396       9.289       9.319       9.338       9.344       9.455       9.558       9.644       9.717    
        9.782       9.840       9.896       9.948       10.00    
  13    10.00       9.962       9.924       9.885       9.844       9.801       9.755       9.704       9.646       9.575    
        9.481       9.336       9.035       9.279       9.373       9.431       9.508       9.587       9.660       9.727    
        9.787       9.844       9.898       9.949       10.00    
  14    10.00       9.963       9.925       9.887       9.847       9.805       9.760       9.711       9.656       9.592    
        9.516       9.423       9.329       9.383       9.442       9.497       9.557       9.620       9.682       9.741    
        9.797       9.850       9.901       9.951       10.00    
  15    10.00       9.964       9.927       9.890       9.851       9.811       9.769       9.724       9.675       9.622    
        9.565       9.509       9.469       9.481       9.514       9.556       9.603       9.655       9.707       9.759    
        9.809       9.858       9.906       9.953       10.00    
  16    10.00       9.965       9.930       9.894       9.857       9.820       9.781       9.740       9.698       9.656    
        9.614       9.577       9.556       9.558       9.578       9.608       9.646       9.687       9.732       9.777    
        9.822       9.867       9.912       9.956       10.00    
  17    10.00       9.966       9.933       9.899       9.864       9.829       9.794       9.758       9.722       9.688    
        9.656       9.631       9.617       9.617       9.630       9.653       9.683       9.718       9.755       9.795    
        9.836       9.877       9.918       9.959       10.00    
  18    10.00       9.968       9.936       9.904       9.871       9.839       9.807       9.775       9.745       9.716    
        9.692       9.673       9.663       9.663       9.673       9.691       9.715       9.744       9.777       9.812    
        9.848       9.886       9.924       9.962       10.00    
  19    10.00       9.969       9.939       9.908       9.878       9.848       9.819       9.791       9.765       9.741    
        9.721       9.707       9.700       9.700       9.708       9.722       9.742       9.767       9.796       9.827    
        9.860       9.894       9.929       9.964       10.00    
  20    10.00       9.971       9.942       9.913       9.885       9.857       9.830       9.805       9.782       9.762    
        9.746       9.734       9.728       9.728       9.735       9.747       9.765       9.787       9.812       9.840    
        9.870       9.901       9.934       9.967       10.00    
  21    10.00       9.972       9.945       9.917       9.890       9.865       9.840       9.817       9.797       9.779    
        9.765       9.755       9.750       9.751       9.757       9.768       9.783       9.802       9.825       9.851    
        9.878       9.908       9.938       9.969       10.00    
  22    10.00       9.973       9.947       9.921       9.895       9.871       9.848       9.827       9.808       9.792    
        9.780       9.771       9.767       9.768       9.773       9.783       9.797       9.815       9.836       9.859    
        9.885       9.913       9.941       9.970       10.00    
  23    10.00       9.974       9.948       9.923       9.899       9.876       9.854       9.834       9.816       9.802    
        9.791       9.783       9.779       9.780       9.785       9.794       9.807       9.824       9.844       9.866    
        9.890       9.916       9.944       9.972       10.00    
  24    10.00       9.975       9.950       9.925       9.901       9.879       9.858       9.839       9.822       9.808    
        9.798       9.791       9.787       9.788       9.793       9.802       9.814       9.830       9.849       9.870    
        9.894       9.919       9.945       9.972       10.00    
  25    10.00       9.975       9.950       9.926       9.903       9.880       9.860       9.841       9.825       9.811    
        9.801       9.794       9.791       9.792       9.797       9.805       9.817       9.833       9.851       9.872    
        9.895       9.920       9.946       9.973       10.00    

 HEAD WILL BE SAVED ON UNIT   51 AT END OF TIME STEP    1, STRESS PERIOD    1
1
  VOLUMETRIC BUDGET FOR ENTIRE MODEL AT END OF TIME STEP    1, STRESS PERIOD   1
  ------------------------------------------------------------------------------

     CUMULATIVE VOLUMES      L**3       RATES FOR THIS TIME STEP      L**3/T
     ------------------                 ------------------------

           IN:                                      IN:
           ---                                      ---
             STORAGE =           0.0000               STORAGE =           0.0000
       CONSTANT HEAD =          18.0000         CONSTANT HEAD =          18.0000
               WELLS =           0.0000                 WELLS =           0.0000

            TOTAL IN =          18.0000              TOTAL IN =          18.0000

          OUT:                                     OUT:
          ----                                     ----
             STORAGE =           0.0000               STORAGE =           0.0000
       CONSTANT HEAD =           0.0000         CONSTANT HEAD =           0.0000
               WELLS =          18.0000                 WELLS =          18.0000

           TOTAL OUT =          18.0000             TOTAL OUT =          18.0000

            IN - OUT =           0.0000              IN - OUT =           0.0000

 PERCENT DISCREPANCY =           0.00     PERCENT DISCREPANCY =           0.00






         TIME SUMMARY AT END OF TIME STEP    1 IN STRESS PERIOD    1
                    SECONDS     MINUTES      HOURS       DAYS        YEARS
                    -----------------------------------------------------------
   TIME STEP LENGTH  86400.      1440.0      24.000      1.0000     2.73785E-03
 STRESS PERIOD TIME  86400.      1440.0      24.000      1.0000     2.73785E-03
         TOTAL TIME  86400.      1440.0      24.000      1.0000     2.73785E-03
1

 Run end date and time (yyyy/mm/dd hh:mm:ss): 2026/02/10 18:34:20
 Elapsed run time:  0.025 Seconds

