                                  MODFLOW-2005     
      U.S. GEOLOGICAL SURVEY MODULAR FINITE-DIFFERENCE GROUND-WATER FLOW MODEL
                            VERSION 1.12.00 2/3/2017

 LIST FILE: BoxModel_well.list
                         UNIT    2

 OPENING BoxModel_well.dis
 FILE TYPE:DIS   UNIT   11   STATUS:OLD    
 FORMAT:FORMATTED              ACCESS:SEQUENTIAL          

 OPENING BoxModel_well.bas
 FILE TYPE:BAS6   UNIT   13   STATUS:OLD    
 FORMAT:FORMATTED              ACCESS:SEQUENTIAL          

 OPENING BoxModel_well.bcf
 FILE TYPE:BCF6   UNIT   15   STATUS:OLD    
 FORMAT:FORMATTED              ACCESS:SEQUENTIAL          

 OPENING BoxModel_well.oc
 FILE TYPE:OC   UNIT   14   STATUS:OLD    
 FORMAT:FORMATTED              ACCESS:SEQUENTIAL          

 OPENING BoxModel_well.pcg
 FILE TYPE:PCG   UNIT   27   STATUS:OLD    
 FORMAT:FORMATTED              ACCESS:SEQUENTIAL          

 OPENING BoxModel_well.wel
 FILE TYPE:WEL   UNIT   20   STATUS:OLD    
 FORMAT:FORMATTED              ACCESS:SEQUENTIAL          

 OPENING BoxModel_well.cbc
 FILE TYPE:DATA(BINARY)   UNIT   53   STATUS:REPLACE
 FORMAT:UNFORMATTED            ACCESS:STREAM              

 OPENING BoxModel_well.hds
 FILE TYPE:DATA(BINARY)   UNIT   51   STATUS:REPLACE
 FORMAT:UNFORMATTED            ACCESS:STREAM              

 BAS -- BASIC PACKAGE, VERSION 7, 5/2/2005 INPUT READ FROM UNIT   13
 
 MODFLOW was compiled using mixed precision
 Precision of REAL variables:           6
 Precision of DOUBLE PRECISION variables:          15

 DISCRETIZATION INPUT DATA READ FROM UNIT   11
 # DIS package for MODFLOW-2005 generated by Flopy 3.9.5
    1 LAYERS        25 ROWS        25 COLUMNS
    1 STRESS PERIOD(S) IN SIMULATION
 MODEL TIME UNIT IS DAYS
 MODEL LENGTH UNIT IS METERS
  Confining bed flag for each layer:
   0

                     DELR =   100.000    

                     DELC =   100.000    

 TOP ELEVATION OF LAYER 1 =   10.0000    

   MODEL LAYER BOTTOM EL. =   0.00000     FOR LAYER   1


 STRESS PERIOD     LENGTH       TIME STEPS     MULTIPLIER FOR DELT    SS FLAG
 ----------------------------------------------------------------------------
        1         1.000000          1                    1.000         SS

 STEADY-STATE SIMULATION



 
 # BAS6 package for MODFLOW-2005 generated by Flopy 3.9.5                        
 THE FREE FORMAT OPTION HAS BEEN SELECTED



                     BOUNDARY ARRAY FOR LAYER   1
 READING ON UNIT   13 WITH FORMAT: (25I10)             

 AQUIFER HEAD WILL BE SET TO  -999.99     AT ALL NO-FLOW NODES (IBOUND=0).



                       INITIAL HEAD FOR LAYER   1
 READING ON UNIT   13 WITH FORMAT: (25E15.6)           
 # OC package for MODFLOW-2005 generated by Flopy 3.9.5

 OUTPUT CONTROL IS SPECIFIED ONLY AT TIME STEPS FOR WHICH OUTPUT IS DESIRED
 COMPACT CELL-BY-CELL BUDGET FILES WILL BE WRITTEN
 AUXILIARY DATA WILL BE SAVED IN CELL-BY-CELL BUDGET FILES
 HEAD PRINT FORMAT CODE IS   0    DRAWDOWN PRINT FORMAT CODE IS   0
 HEADS WILL BE SAVED ON UNIT   51    DRAWDOWNS WILL BE SAVED ON UNIT    0

 BCF -- BLOCK-CENTERED FLOW PACKAGE, VERSION 7, 5/2/2005
         INPUT READ FROM UNIT 15
 STEADY-STATE SIMULATION
 CELL-BY-CELL FLOWS WILL BE SAVED ON UNIT 53
 HEAD AT CELLS THAT CONVERT TO DRY= -0.10000E+31
 WETTING CAPABILITY IS NOT ACTIVE
      LAYER  LAYER-TYPE CODE     INTERBLOCK T
      --------------------------------------------
         1            3          0 -- HARMONIC    

 COLUMN TO ROW ANISOTROPY =   1.00000    



              HYD. COND. ALONG ROWS FOR LAYER   1
 READING ON UNIT   15 WITH FORMAT: (25E15.6)           

 WEL -- WELL PACKAGE, VERSION 7, 5/2/2005 INPUT READ FROM UNIT   20
 # WEL package for MODFLOW-2005 generated by Flopy 3.9.5
 No named parameters
 MAXIMUM OF      1 ACTIVE WELLS AT ONE TIME


     0 Well parameters

 PCG -- CONJUGATE-GRADIENT SOLUTION PACKAGE, VERSION 7, 5/2/2005
 # PCG package for MODFLOW-2005 generated by Flopy 3.9.5
 MAXIMUM OF     50 CALLS OF SOLUTION ROUTINE
 MAXIMUM OF     30 INTERNAL ITERATIONS PER CALL TO SOLUTION ROUTINE
 MATRIX PRECONDITIONING TYPE :    1



                                    SOLUTION BY THE CONJUGATE-GRADIENT METHOD
                                   -------------------------------------------
                    MAXIMUM NUMBER OF CALLS TO PCG ROUTINE =       50
                        MAXIMUM ITERATIONS PER CALL TO PCG =       30
                               MATRIX PRECONDITIONING TYPE =        1
        RELAXATION FACTOR (ONLY USED WITH PRECOND. TYPE 1) =    0.10000E+01
 PARAMETER OF POLYNOMIAL PRECOND. = 2 (2) OR IS CALCULATED :        0
                         HEAD CHANGE CRITERION FOR CLOSURE =    0.10000E-04
                     RESIDUAL CHANGE CRITERION FOR CLOSURE =    0.10000E-04
            PCG HEAD AND RESIDUAL CHANGE PRINTOUT INTERVAL =      999
     PRINTING FROM SOLVER IS LIMITED(1) OR SUPPRESSED (>1) =        3
                            STEADY-STATE DAMPING PARAMETER =    0.10000E+01
                               TRANSIENT DAMPING PARAMETER =    0.10000E+01
1
                            STRESS PERIOD NO.    1, LENGTH =   1.000000    
                            -----------------------------------------------

                              NUMBER OF TIME STEPS =     1

                               MULTIPLIER FOR DELT =     1.000

                            INITIAL TIME STEP SIZE =   1.000000    

 WELL NO.  LAYER   ROW   COL   STRESS RATE         
 --------------------------------------------------
      1      1     11     16      -800.0    

      1 WELL 
 
 SOLVING FOR HEAD 

 CELL CONVERSIONS FOR ITER.=  2  LAYER=  1  STEP=  1  PERIOD=  1   (ROW,COL)
    DRY(  1,  3)   DRY(  1,  4)   DRY(  1,  5)   DRY(  1,  6)   DRY(  1,  7)   
    DRY(  1,  8)   DRY(  1,  9)   DRY(  1, 10)   DRY(  1, 11)   DRY(  1, 12)   
    DRY(  1, 13)   DRY(  1, 14)   DRY(  1, 15)   DRY(  1, 16)   DRY(  1, 17)   
    DRY(  1, 18)   DRY(  1, 19)   DRY(  1, 20)   DRY(  1, 21)   DRY(  1, 22)   
    DRY(  1, 23)   DRY(  2,  3)   DRY(  2,  4)   DRY(  2,  5)   DRY(  2,  6)   
    DRY(  2,  7)   DRY(  2,  8)   DRY(  2,  9)   DRY(  2, 10)   DRY(  2, 11)   
    DRY(  2, 12)   DRY(  2, 13)   DRY(  2, 14)   DRY(  2, 15)   DRY(  2, 16)   
    DRY(  2, 17)   DRY(  2, 18)   DRY(  2, 19)   DRY(  2, 20)   DRY(  2, 21)   
    DRY(  2, 22)   DRY(  2, 23)   DRY(  2, 24)   DRY(  3,  3)   DRY(  3,  4)   
    DRY(  3,  5)   DRY(  3,  6)   DRY(  3,  7)   DRY(  3,  8)   DRY(  3,  9)   
    DRY(  3, 10)   DRY(  3, 11)   DRY(  3, 12)   DRY(  3, 13)   DRY(  3, 14)   
    DRY(  3, 15)   DRY(  3, 16)   DRY(  3, 17)   DRY(  3, 18)   DRY(  3, 19)   
    DRY(  3, 20)   DRY(  3, 21)   DRY(  3, 22)   DRY(  3, 23)   DRY(  3, 24)   
    DRY(  4,  3)   DRY(  4,  4)   DRY(  4,  5)   DRY(  4,  6)   DRY(  4,  7)   
    DRY(  4,  8)   DRY(  4,  9)   DRY(  4, 10)   DRY(  4, 11)   DRY(  4, 12)   
    DRY(  4, 13)   DRY(  4, 14)   DRY(  4, 15)   DRY(  4, 16)   DRY(  4, 17)   
    DRY(  4, 18)   DRY(  4, 19)   DRY(  4, 20)   DRY(  4, 21)   DRY(  4, 22)   
    DRY(  4, 23)   DRY(  4, 24)   DRY(  5,  3)   DRY(  5,  4)   DRY(  5,  5)   
    DRY(  5,  6)   DRY(  5,  7)   DRY(  5,  8)   DRY(  5,  9)   DRY(  5, 10)   
    DRY(  5, 11)   DRY(  5, 12)   DRY(  5, 13)   DRY(  5, 14)   DRY(  5, 15)   
    DRY(  5, 16)   DRY(  5, 17)   DRY(  5, 18)   DRY(  5, 19)   DRY(  5, 20)   
    DRY(  5, 21)   DRY(  5, 22)   DRY(  5, 23)   DRY(  5, 24)   DRY(  6,  3)   
    DRY(  6,  4)   DRY(  6,  5)   DRY(  6,  6)   DRY(  6,  7)   DRY(  6,  8)   
    DRY(  6,  9)   DRY(  6, 10)   DRY(  6, 11)   DRY(  6, 12)   DRY(  6, 13)   
    DRY(  6, 14)   DRY(  6, 15)   DRY(  6, 16)   DRY(  6, 17)   DRY(  6, 18)   
    DRY(  6, 19)   DRY(  6, 20)   DRY(  6, 21)   DRY(  6, 22)   DRY(  6, 23)   
    DRY(  6, 24)   DRY(  7,  3)   DRY(  7,  4)   DRY(  7,  5)   DRY(  7,  6)   
    DRY(  7,  7)   DRY(  7,  8)   DRY(  7,  9)   DRY(  7, 10)   DRY(  7, 11)   
    DRY(  7, 12)   DRY(  7, 13)   DRY(  7, 14)   DRY(  7, 15)   DRY(  7, 16)   
    DRY(  7, 17)   DRY(  7, 18)   DRY(  7, 19)   DRY(  7, 20)   DRY(  7, 21)   
    DRY(  7, 22)   DRY(  7, 23)   DRY(  7, 24)   DRY(  8,  3)   DRY(  8,  4)   
    DRY(  8,  5)   DRY(  8,  6)   DRY(  8,  7)   DRY(  8,  8)   DRY(  8,  9)   
    DRY(  8, 10)   DRY(  8, 11)   DRY(  8, 12)   DRY(  8, 13)   DRY(  8, 14)   
    DRY(  8, 15)   DRY(  8, 16)   DRY(  8, 17)   DRY(  8, 18)   DRY(  8, 19)   
    DRY(  8, 20)   DRY(  8, 21)   DRY(  8, 22)   DRY(  8, 23)   DRY(  8, 24)   
    DRY(  9,  3)   DRY(  9,  4)   DRY(  9,  5)   DRY(  9,  6)   DRY(  9,  7)   
    DRY(  9,  8)   DRY(  9,  9)   DRY(  9, 10)   DRY(  9, 11)   DRY(  9, 12)   
    DRY(  9, 13)   DRY(  9, 14)   DRY(  9, 15)   DRY(  9, 16)   DRY(  9, 17)   
    DRY(  9, 18)   DRY(  9, 19)   DRY(  9, 20)   DRY(  9, 21)   DRY(  9, 22)   
    DRY(  9, 23)   DRY(  9, 24)   DRY( 10,  3)   DRY( 10,  4)   DRY( 10,  5)   
    DRY( 10,  6)   DRY( 10,  7)   DRY( 10,  8)   DRY( 10,  9)   DRY( 10, 10)   
    DRY( 10, 11)   DRY( 10, 12)   DRY( 10, 13)   DRY( 10, 14)   DRY( 10, 15)   
    DRY( 10, 16)   DRY( 10, 17)   DRY( 10, 18)   DRY( 10, 19)   DRY( 10, 20)   
    DRY( 10, 21)   DRY( 10, 22)   DRY( 10, 23)   DRY( 10, 24)   DRY( 11,  3)   
    DRY( 11,  4)   DRY( 11,  5)   DRY( 11,  6)   DRY( 11,  7)   DRY( 11,  8)   
    DRY( 11,  9)   DRY( 11, 10)   DRY( 11, 11)   DRY( 11, 12)   DRY( 11, 13)   
    DRY( 11, 14)   DRY( 11, 15)   DRY( 11, 16)   DRY( 11, 17)   DRY( 11, 18)   
    DRY( 11, 19)   DRY( 11, 20)   DRY( 11, 21)   DRY( 11, 22)   DRY( 11, 23)   
    DRY( 11, 24)   DRY( 12,  3)   DRY( 12,  4)   DRY( 12,  5)   DRY( 12,  6)   
    DRY( 12,  7)   DRY( 12,  8)   DRY( 12,  9)   DRY( 12, 10)   DRY( 12, 11)   
    DRY( 12, 12)   DRY( 12, 13)   DRY( 12, 14)   DRY( 12, 15)   DRY( 12, 16)   
    DRY( 12, 17)   DRY( 12, 18)   DRY( 12, 19)   DRY( 12, 20)   DRY( 12, 21)   
    DRY( 12, 22)   DRY( 12, 23)   DRY( 12, 24)   DRY( 13,  3)   DRY( 13,  4)   
    DRY( 13,  5)   DRY( 13,  6)   DRY( 13,  7)   DRY( 13,  8)   DRY( 13,  9)   
    DRY( 13, 10)   DRY( 13, 11)   DRY( 13, 12)   DRY( 13, 13)   DRY( 13, 14)   
    DRY( 13, 15)   DRY( 13, 16)   DRY( 13, 17)   DRY( 13, 18)   DRY( 13, 19)   
    DRY( 13, 20)   DRY( 13, 21)   DRY( 13, 22)   DRY( 13, 23)   DRY( 13, 24)   
    DRY( 14,  3)   DRY( 14,  4)   DRY( 14,  5)   DRY( 14,  6)   DRY( 14,  7)   
    DRY( 14,  8)   DRY( 14,  9)   DRY( 14, 10)   DRY( 14, 11)   DRY( 14, 12)   
    DRY( 14, 13)   DRY( 14, 14)   DRY( 14, 15)   DRY( 14, 16)   DRY( 14, 17)   
    DRY( 14, 18)   DRY( 14, 19)   DRY( 14, 20)   DRY( 14, 21)   DRY( 14, 22)   
    DRY( 14, 23)   DRY( 14, 24)   DRY( 15,  3)   DRY( 15,  4)   DRY( 15,  5)   
    DRY( 15,  6)   DRY( 15,  7)   DRY( 15,  8)   DRY( 15,  9)   DRY( 15, 10)   
    DRY( 15, 11)   DRY( 15, 12)   DRY( 15, 13)   DRY( 15, 14)   DRY( 15, 15)   
    DRY( 15, 16)   DRY( 15, 17)   DRY( 15, 18)   DRY( 15, 19)   DRY( 15, 20)   
    DRY( 15, 21)   DRY( 15, 22)   DRY( 15, 23)   DRY( 15, 24)   DRY( 16,  3)   
    DRY( 16,  4)   DRY( 16,  5)   DRY( 16,  6)   DRY( 16,  7)   DRY( 16,  8)   
    DRY( 16,  9)   DRY( 16, 10)   DRY( 16, 11)   DRY( 16, 12)   DRY( 16, 13)   
    DRY( 16, 14)   DRY( 16, 15)   DRY( 16, 16)   DRY( 16, 17)   DRY( 16, 18)   
    DRY( 16, 19)   DRY( 16, 20)   DRY( 16, 21)   DRY( 16, 22)   DRY( 16, 23)   
    DRY( 16, 24)   DRY( 17,  3)   DRY( 17,  4)   DRY( 17,  5)   DRY( 17,  6)   
    DRY( 17,  7)   DRY( 17,  8)   DRY( 17,  9)   DRY( 17, 10)   DRY( 17, 11)   
    DRY( 17, 12)   DRY( 17, 13)   DRY( 17, 14)   DRY( 17, 15)   DRY( 17, 16)   
    DRY( 17, 17)   DRY( 17, 18)   DRY( 17, 19)   DRY( 17, 20)   DRY( 17, 21)   
    DRY( 17, 22)   DRY( 17, 23)   DRY( 17, 24)   DRY( 18,  3)   DRY( 18,  4)   
    DRY( 18,  5)   DRY( 18,  6)   DRY( 18,  7)   DRY( 18,  8)   DRY( 18,  9)   
    DRY( 18, 10)   DRY( 18, 11)   DRY( 18, 12)   DRY( 18, 13)   DRY( 18, 14)   
    DRY( 18, 15)   DRY( 18, 16)   DRY( 18, 17)   DRY( 18, 18)   DRY( 18, 19)   
    DRY( 18, 20)   DRY( 18, 21)   DRY( 18, 22)   DRY( 18, 23)   DRY( 19,  3)   
    DRY( 19,  4)   DRY( 19,  5)   DRY( 19,  6)   DRY( 19,  7)   DRY( 19,  8)   
    DRY( 19,  9)   DRY( 19, 10)   DRY( 19, 11)   DRY( 19, 12)   DRY( 19, 13)   
    DRY( 19, 14)   DRY( 19, 15)   DRY( 19, 16)   DRY( 19, 17)   DRY( 19, 18)   
    DRY( 19, 19)   DRY( 19, 20)   DRY( 19, 21)   DRY( 19, 22)   DRY( 19, 23)   
    DRY( 20,  3)   DRY( 20,  4)   DRY( 20,  5)   DRY( 20,  6)   DRY( 20,  7)   
    DRY( 20,  8)   DRY( 20,  9)   DRY( 20, 10)   DRY( 20, 11)   DRY( 20, 12)   
    DRY( 20, 13)   DRY( 20, 14)   DRY( 20, 15)   DRY( 20, 16)   DRY( 20, 17)   
    DRY( 20, 18)   DRY( 20, 19)   DRY( 20, 20)   DRY( 20, 21)   DRY( 20, 22)   
    DRY( 20, 23)   DRY( 21,  3)   DRY( 21,  4)   DRY( 21,  5)   DRY( 21,  6)   
    DRY( 21,  7)   DRY( 21,  8)   DRY( 21,  9)   DRY( 21, 10)   DRY( 21, 11)   
    DRY( 21, 12)   DRY( 21, 13)   DRY( 21, 14)   DRY( 21, 15)   DRY( 21, 16)   
    DRY( 21, 17)   DRY( 21, 18)   DRY( 21, 19)   DRY( 21, 20)   DRY( 21, 21)   
    DRY( 21, 22)   DRY( 21, 23)   DRY( 22,  3)   DRY( 22,  4)   DRY( 22,  5)   
    DRY( 22,  6)   DRY( 22,  7)   DRY( 22,  8)   DRY( 22,  9)   DRY( 22, 10)   
    DRY( 22, 11)   DRY( 22, 12)   DRY( 22, 13)   DRY( 22, 14)   DRY( 22, 15)   
    DRY( 22, 16)   DRY( 22, 17)   DRY( 22, 18)   DRY( 22, 19)   DRY( 22, 20)   
    DRY( 22, 21)   DRY( 22, 22)   DRY( 22, 23)   DRY( 23,  3)   DRY( 23,  4)   
    DRY( 23,  5)   DRY( 23,  6)   DRY( 23,  7)   DRY( 23,  8)   DRY( 23,  9)   
    DRY( 23, 10)   DRY( 23, 11)   DRY( 23, 12)   DRY( 23, 13)   DRY( 23, 14)   
    DRY( 23, 15)   DRY( 23, 16)   DRY( 23, 17)   DRY( 23, 18)   DRY( 23, 19)   
    DRY( 23, 20)   DRY( 23, 21)   DRY( 23, 22)   DRY( 23, 23)   DRY( 24,  3)   
    DRY( 24,  4)   DRY( 24,  5)   DRY( 24,  6)   DRY( 24,  7)   DRY( 24,  8)   
    DRY( 24,  9)   DRY( 24, 10)   DRY( 24, 11)   DRY( 24, 12)   DRY( 24, 13)   
    DRY( 24, 14)   DRY( 24, 15)   DRY( 24, 16)   DRY( 24, 17)   DRY( 24, 18)   
    DRY( 24, 19)   DRY( 24, 20)   DRY( 24, 21)   DRY( 24, 22)   DRY( 24, 23)   
    DRY( 25,  3)   DRY( 25,  4)   DRY( 25,  5)   DRY( 25,  6)   DRY( 25,  7)   
    DRY( 25,  8)   DRY( 25,  9)   DRY( 25, 10)   DRY( 25, 11)   DRY( 25, 12)   
    DRY( 25, 13)   DRY( 25, 14)   DRY( 25, 15)   DRY( 25, 16)   DRY( 25, 17)   
    DRY( 25, 18)   DRY( 25, 19)   DRY( 25, 20)   DRY( 25, 21)   DRY( 25, 22)   
    DRY( 25, 23)   

 OUTPUT CONTROL FOR STRESS PERIOD    1   TIME STEP    1
    PRINT HEAD FOR ALL LAYERS
    PRINT BUDGET
    SAVE HEAD FOR ALL LAYERS
    SAVE BUDGET
 UBDSV2 SAVING "   CONSTANT HEAD" ON UNIT  53 AT TIME STEP  1, STRESS PERIOD   1
 UBDSV1 SAVING "FLOW RIGHT FACE " ON UNIT  53 AT TIME STEP  1, STRESS PERIOD   1
 UBDSV1 SAVING "FLOW FRONT FACE " ON UNIT  53 AT TIME STEP  1, STRESS PERIOD   1
1
              HEAD IN LAYER   1 AT END OF TIME STEP   1 IN STRESS PERIOD    1
  ---------------------------------------------------------------------------

            1           2           3           4           5           6           7           8           9          10
           11          12          13          14          15          16          17          18          19          20
           21          22          23          24          25
 ........................................................................................................................
   1    10.00       10.00     -1.0000E+30 -1.0000E+30 -1.0000E+30 -1.0000E+30 -1.0000E+30 -1.0000E+30 -1.0000E+30 -1.0000E+30
      -1.0000E+30 -1.0000E+30 -1.0000E+30 -1.0000E+30 -1.0000E+30 -1.0000E+30 -1.0000E+30 -1.0000E+30 -1.0000E+30 -1.0000E+30
      -1.0000E+30 -1.0000E+30 -1.0000E+30   10.00       10.00    
   2    10.00       10.00     -1.0000E+30 -1.0000E+30 -1.0000E+30 -1.0000E+30 -1.0000E+30 -1.0000E+30 -1.0000E+30 -1.0000E+30
      -1.0000E+30 -1.0000E+30 -1.0000E+30 -1.0000E+30 -1.0000E+30 -1.0000E+30 -1.0000E+30 -1.0000E+30 -1.0000E+30 -1.0000E+30
      -1.0000E+30 -1.0000E+30 -1.0000E+30 -1.0000E+30   10.00    
   3    10.00       10.00     -1.0000E+30 -1.0000E+30 -1.0000E+30 -1.0000E+30 -1.0000E+30 -1.0000E+30 -1.0000E+30 -1.0000E+30
      -1.0000E+30 -1.0000E+30 -1.0000E+30 -1.0000E+30 -1.0000E+30 -1.0000E+30 -1.0000E+30 -1.0000E+30 -1.0000E+30 -1.0000E+30
      -1.0000E+30 -1.0000E+30 -1.0000E+30 -1.0000E+30   10.00    
   4    10.00       10.00     -1.0000E+30 -1.0000E+30 -1.0000E+30 -1.0000E+30 -1.0000E+30 -1.0000E+30 -1.0000E+30 -1.0000E+30
      -1.0000E+30 -1.0000E+30 -1.0000E+30 -1.0000E+30 -1.0000E+30 -1.0000E+30 -1.0000E+30 -1.0000E+30 -1.0000E+30 -1.0000E+30
      -1.0000E+30 -1.0000E+30 -1.0000E+30 -1.0000E+30   10.00    
   5    10.00       10.00     -1.0000E+30 -1.0000E+30 -1.0000E+30 -1.0000E+30 -1.0000E+30 -1.0000E+30 -1.0000E+30 -1.0000E+30
      -1.0000E+30 -1.0000E+30 -1.0000E+30 -1.0000E+30 -1.0000E+30 -1.0000E+30 -1.0000E+30 -1.0000E+30 -1.0000E+30 -1.0000E+30
      -1.0000E+30 -1.0000E+30 -1.0000E+30 -1.0000E+30   10.00    
   6    10.00       10.00     -1.0000E+30 -1.0000E+30 -1.0000E+30 -1.0000E+30 -1.0000E+30 -1.0000E+30 -1.0000E+30 -1.0000E+30
      -1.0000E+30 -1.0000E+30 -1.0000E+30 -1.0000E+30 -1.0000E+30 -1.0000E+30 -1.0000E+30 -1.0000E+30 -1.0000E+30 -1.0000E+30
      -1.0000E+30 -1.0000E+30 -1.0000E+30 -1.0000E+30   10.00    
   7    10.00       10.00     -1.0000E+30 -1.0000E+30 -1.0000E+30 -1.0000E+30 -1.0000E+30 -1.0000E+30 -1.0000E+30 -1.0000E+30
      -1.0000E+30 -1.0000E+30 -1.0000E+30 -1.0000E+30 -1.0000E+30 -1.0000E+30 -1.0000E+30 -1.0000E+30 -1.0000E+30 -1.0000E+30
      -1.0000E+30 -1.0000E+30 -1.0000E+30 -1.0000E+30   10.00    
   8    10.00       10.00     -1.0000E+30 -1.0000E+30 -1.0000E+30 -1.0000E+30 -1.0000E+30 -1.0000E+30 -1.0000E+30 -1.0000E+30
      -1.0000E+30 -1.0000E+30 -1.0000E+30 -1.0000E+30 -1.0000E+30 -1.0000E+30 -1.0000E+30 -1.0000E+30 -1.0000E+30 -1.0000E+30
      -1.0000E+30 -1.0000E+30 -1.0000E+30 -1.0000E+30   10.00    
   9    10.00       10.00     -1.0000E+30 -1.0000E+30 -1.0000E+30 -1.0000E+30 -1.0000E+30 -1.0000E+30 -1.0000E+30 -1.0000E+30
      -1.0000E+30 -1.0000E+30 -1.0000E+30 -1.0000E+30 -1.0000E+30 -1.0000E+30 -1.0000E+30 -1.0000E+30 -1.0000E+30 -1.0000E+30
      -1.0000E+30 -1.0000E+30 -1.0000E+30 -1.0000E+30   10.00    
  10    10.00       10.00     -1.0000E+30 -1.0000E+30 -1.0000E+30 -1.0000E+30 -1.0000E+30 -1.0000E+30 -1.0000E+30 -1.0000E+30
      -1.0000E+30 -1.0000E+30 -1.0000E+30 -1.0000E+30 -1.0000E+30 -1.0000E+30 -1.0000E+30 -1.0000E+30 -1.0000E+30 -1.0000E+30
      -1.0000E+30 -1.0000E+30 -1.0000E+30 -1.0000E+30   10.00    
  11    10.00       10.00     -1.0000E+30 -1.0000E+30 -1.0000E+30 -1.0000E+30 -1.0000E+30 -1.0000E+30 -1.0000E+30 -1.0000E+30
      -1.0000E+30 -1.0000E+30 -1.0000E+30 -1.0000E+30 -1.0000E+30 -1.0000E+30 -1.0000E+30 -1.0000E+30 -1.0000E+30 -1.0000E+30
      -1.0000E+30 -1.0000E+30 -1.0000E+30 -1.0000E+30   10.00    
  12    10.00       10.00     -1.0000E+30 -1.0000E+30 -1.0000E+30 -1.0000E+30 -1.0000E+30 -1.0000E+30 -1.0000E+30 -1.0000E+30
      -1.0000E+30 -1.0000E+30 -1.0000E+30 -1.0000E+30 -1.0000E+30 -1.0000E+30 -1.0000E+30 -1.0000E+30 -1.0000E+30 -1.0000E+30
      -1.0000E+30 -1.0000E+30 -1.0000E+30 -1.0000E+30   10.00    
  13    10.00       10.00     -1.0000E+30 -1.0000E+30 -1.0000E+30 -1.0000E+30 -1.0000E+30 -1.0000E+30 -1.0000E+30 -1.0000E+30
      -1.0000E+30 -1.0000E+30 -1.0000E+30 -1.0000E+30 -1.0000E+30 -1.0000E+30 -1.0000E+30 -1.0000E+30 -1.0000E+30 -1.0000E+30
      -1.0000E+30 -1.0000E+30 -1.0000E+30 -1.0000E+30   10.00    
  14    10.00       10.00     -1.0000E+30 -1.0000E+30 -1.0000E+30 -1.0000E+30 -1.0000E+30 -1.0000E+30 -1.0000E+30 -1.0000E+30
      -1.0000E+30 -1.0000E+30 -1.0000E+30 -1.0000E+30 -1.0000E+30 -1.0000E+30 -1.0000E+30 -1.0000E+30 -1.0000E+30 -1.0000E+30
      -1.0000E+30 -1.0000E+30 -1.0000E+30 -1.0000E+30   10.00    
  15    10.00       10.00     -1.0000E+30 -1.0000E+30 -1.0000E+30 -1.0000E+30 -1.0000E+30 -1.0000E+30 -1.0000E+30 -1.0000E+30
      -1.0000E+30 -1.0000E+30 -1.0000E+30 -1.0000E+30 -1.0000E+30 -1.0000E+30 -1.0000E+30 -1.0000E+30 -1.0000E+30 -1.0000E+30
      -1.0000E+30 -1.0000E+30 -1.0000E+30 -1.0000E+30   10.00    
  16    10.00       10.00     -1.0000E+30 -1.0000E+30 -1.0000E+30 -1.0000E+30 -1.0000E+30 -1.0000E+30 -1.0000E+30 -1.0000E+30
      -1.0000E+30 -1.0000E+30 -1.0000E+30 -1.0000E+30 -1.0000E+30 -1.0000E+30 -1.0000E+30 -1.0000E+30 -1.0000E+30 -1.0000E+30
      -1.0000E+30 -1.0000E+30 -1.0000E+30 -1.0000E+30   10.00    
  17    10.00       10.00     -1.0000E+30 -1.0000E+30 -1.0000E+30 -1.0000E+30 -1.0000E+30 -1.0000E+30 -1.0000E+30 -1.0000E+30
      -1.0000E+30 -1.0000E+30 -1.0000E+30 -1.0000E+30 -1.0000E+30 -1.0000E+30 -1.0000E+30 -1.0000E+30 -1.0000E+30 -1.0000E+30
      -1.0000E+30 -1.0000E+30 -1.0000E+30 -1.0000E+30   10.00    
  18    10.00       10.00     -1.0000E+30 -1.0000E+30 -1.0000E+30 -1.0000E+30 -1.0000E+30 -1.0000E+30 -1.0000E+30 -1.0000E+30
      -1.0000E+30 -1.0000E+30 -1.0000E+30 -1.0000E+30 -1.0000E+30 -1.0000E+30 -1.0000E+30 -1.0000E+30 -1.0000E+30 -1.0000E+30
      -1.0000E+30 -1.0000E+30 -1.0000E+30   10.00       10.00    
  19    10.00       10.00     -1.0000E+30 -1.0000E+30 -1.0000E+30 -1.0000E+30 -1.0000E+30 -1.0000E+30 -1.0000E+30 -1.0000E+30
      -1.0000E+30 -1.0000E+30 -1.0000E+30 -1.0000E+30 -1.0000E+30 -1.0000E+30 -1.0000E+30 -1.0000E+30 -1.0000E+30 -1.0000E+30
      -1.0000E+30 -1.0000E+30 -1.0000E+30   10.00       10.00    
  20    10.00       10.00     -1.0000E+30 -1.0000E+30 -1.0000E+30 -1.0000E+30 -1.0000E+30 -1.0000E+30 -1.0000E+30 -1.0000E+30
      -1.0000E+30 -1.0000E+30 -1.0000E+30 -1.0000E+30 -1.0000E+30 -1.0000E+30 -1.0000E+30 -1.0000E+30 -1.0000E+30 -1.0000E+30
      -1.0000E+30 -1.0000E+30 -1.0000E+30   10.00       10.00    
  21    10.00       10.00     -1.0000E+30 -1.0000E+30 -1.0000E+30 -1.0000E+30 -1.0000E+30 -1.0000E+30 -1.0000E+30 -1.0000E+30
      -1.0000E+30 -1.0000E+30 -1.0000E+30 -1.0000E+30 -1.0000E+30 -1.0000E+30 -1.0000E+30 -1.0000E+30 -1.0000E+30 -1.0000E+30
      -1.0000E+30 -1.0000E+30 -1.0000E+30   10.00       10.00    
  22    10.00       10.00     -1.0000E+30 -1.0000E+30 -1.0000E+30 -1.0000E+30 -1.0000E+30 -1.0000E+30 -1.0000E+30 -1.0000E+30
      -1.0000E+30 -1.0000E+30 -1.0000E+30 -1.0000E+30 -1.0000E+30 -1.0000E+30 -1.0000E+30 -1.0000E+30 -1.0000E+30 -1.0000E+30
      -1.0000E+30 -1.0000E+30 -1.0000E+30   10.00       10.00    
  23    10.00       10.00     -1.0000E+30 -1.0000E+30 -1.0000E+30 -1.0000E+30 -1.0000E+30 -1.0000E+30 -1.0000E+30 -1.0000E+30
      -1.0000E+30 -1.0000E+30 -1.0000E+30 -1.0000E+30 -1.0000E+30 -1.0000E+30 -1.0000E+30 -1.0000E+30 -1.0000E+30 -1.0000E+30
      -1.0000E+30 -1.0000E+30 -1.0000E+30   10.00       10.00    
  24    10.00       10.00     -1.0000E+30 -1.0000E+30 -1.0000E+30 -1.0000E+30 -1.0000E+30 -1.0000E+30 -1.0000E+30 -1.0000E+30
      -1.0000E+30 -1.0000E+30 -1.0000E+30 -1.0000E+30 -1.0000E+30 -1.0000E+30 -1.0000E+30 -1.0000E+30 -1.0000E+30 -1.0000E+30
      -1.0000E+30 -1.0000E+30 -1.0000E+30   10.00       10.00    
  25    10.00       10.00     -1.0000E+30 -1.0000E+30 -1.0000E+30 -1.0000E+30 -1.0000E+30 -1.0000E+30 -1.0000E+30 -1.0000E+30
      -1.0000E+30 -1.0000E+30 -1.0000E+30 -1.0000E+30 -1.0000E+30 -1.0000E+30 -1.0000E+30 -1.0000E+30 -1.0000E+30 -1.0000E+30
      -1.0000E+30 -1.0000E+30 -1.0000E+30   10.00       10.00    

 HEAD WILL BE SAVED ON UNIT   51 AT END OF TIME STEP    1, STRESS PERIOD    1
1
  VOLUMETRIC BUDGET FOR ENTIRE MODEL AT END OF TIME STEP    1, STRESS PERIOD   1
  ------------------------------------------------------------------------------

     CUMULATIVE VOLUMES      L**3       RATES FOR THIS TIME STEP      L**3/T
     ------------------                 ------------------------

           IN:                                      IN:
           ---                                      ---
             STORAGE =           0.0000               STORAGE =           0.0000
       CONSTANT HEAD =       4.7686E-06         CONSTANT HEAD =       4.7686E-06
               WELLS =           0.0000                 WELLS =           0.0000

            TOTAL IN =       4.7686E-06              TOTAL IN =       4.7686E-06

          OUT:                                     OUT:
          ----                                     ----
             STORAGE =           0.0000               STORAGE =           0.0000
       CONSTANT HEAD =       5.7197E-06         CONSTANT HEAD =       5.7197E-06
               WELLS =           0.0000                 WELLS =           0.0000

           TOTAL OUT =       5.7197E-06             TOTAL OUT =       5.7197E-06

            IN - OUT =      -9.5103E-07              IN - OUT =      -9.5103E-07

 PERCENT DISCREPANCY =         -18.14     PERCENT DISCREPANCY =         -18.14






         TIME SUMMARY AT END OF TIME STEP    1 IN STRESS PERIOD    1
                    SECONDS     MINUTES      HOURS       DAYS        YEARS
                    -----------------------------------------------------------
   TIME STEP LENGTH  86400.      1440.0      24.000      1.0000     2.73785E-03
 STRESS PERIOD TIME  86400.      1440.0      24.000      1.0000     2.73785E-03
         TOTAL TIME  86400.      1440.0      24.000      1.0000     2.73785E-03
1

 Run end date and time (yyyy/mm/dd hh:mm:ss): 2026/02/05 21:51:11
 Elapsed run time:  0.018 Seconds

