                                  MODFLOW-2005     
      U.S. GEOLOGICAL SURVEY MODULAR FINITE-DIFFERENCE GROUND-WATER FLOW MODEL
                            VERSION 1.12.00 2/3/2017

 LIST FILE: RechargeMe.list
                         UNIT    2

 OPENING RechargeMe.dis
 FILE TYPE:DIS   UNIT   11   STATUS:OLD    
 FORMAT:FORMATTED              ACCESS:SEQUENTIAL          

 OPENING RechargeMe.bas
 FILE TYPE:BAS6   UNIT   13   STATUS:OLD    
 FORMAT:FORMATTED              ACCESS:SEQUENTIAL          

 OPENING RechargeMe.lpf
 FILE TYPE:LPF   UNIT   15   STATUS:OLD    
 FORMAT:FORMATTED              ACCESS:SEQUENTIAL          

 OPENING RechargeMe.oc
 FILE TYPE:OC   UNIT   14   STATUS:OLD    
 FORMAT:FORMATTED              ACCESS:SEQUENTIAL          

 OPENING RechargeMe.pcg
 FILE TYPE:PCG   UNIT   27   STATUS:OLD    
 FORMAT:FORMATTED              ACCESS:SEQUENTIAL          

 OPENING RechargeMe.wel
 FILE TYPE:WEL   UNIT   20   STATUS:OLD    
 FORMAT:FORMATTED              ACCESS:SEQUENTIAL          

 OPENING RechargeMe.rch
 FILE TYPE:RCH   UNIT   19   STATUS:OLD    
 FORMAT:FORMATTED              ACCESS:SEQUENTIAL          

 OPENING RechargeMe.cbc
 FILE TYPE:DATA(BINARY)   UNIT   53   STATUS:REPLACE
 FORMAT:UNFORMATTED            ACCESS:STREAM              

 OPENING RechargeMe.hds
 FILE TYPE:DATA(BINARY)   UNIT   51   STATUS:REPLACE
 FORMAT:UNFORMATTED            ACCESS:STREAM              

 BAS -- BASIC PACKAGE, VERSION 7, 5/2/2005 INPUT READ FROM UNIT   13
 
 MODFLOW was compiled using mixed precision
 Precision of REAL variables:           6
 Precision of DOUBLE PRECISION variables:          15

 DISCRETIZATION INPUT DATA READ FROM UNIT   11
 # DIS package for MODFLOW-2005 generated by Flopy 3.9.5
    1 LAYERS        25 ROWS        25 COLUMNS
    1 STRESS PERIOD(S) IN SIMULATION
 MODEL TIME UNIT IS DAYS
 MODEL LENGTH UNIT IS METERS
  Confining bed flag for each layer:
   0

                     DELR =   100.000    

                     DELC =   100.000    

 TOP ELEVATION OF LAYER 1 =   20.0000    

   MODEL LAYER BOTTOM EL. =   0.00000     FOR LAYER   1


 STRESS PERIOD     LENGTH       TIME STEPS     MULTIPLIER FOR DELT    SS FLAG
 ----------------------------------------------------------------------------
        1         1.000000          1                    1.000         SS

 STEADY-STATE SIMULATION



 
 # BAS6 package for MODFLOW-2005 generated by Flopy 3.9.5                        
 THE FREE FORMAT OPTION HAS BEEN SELECTED



                     BOUNDARY ARRAY FOR LAYER   1
 READING ON UNIT   13 WITH FORMAT: (25I10)             

 AQUIFER HEAD WILL BE SET TO  -999.99     AT ALL NO-FLOW NODES (IBOUND=0).



                       INITIAL HEAD FOR LAYER   1
 READING ON UNIT   13 WITH FORMAT: (25E15.6)           
 # OC package for MODFLOW-2005 generated by Flopy 3.9.5

 OUTPUT CONTROL IS SPECIFIED ONLY AT TIME STEPS FOR WHICH OUTPUT IS DESIRED
 COMPACT CELL-BY-CELL BUDGET FILES WILL BE WRITTEN
 AUXILIARY DATA WILL BE SAVED IN CELL-BY-CELL BUDGET FILES
 HEAD PRINT FORMAT CODE IS   0    DRAWDOWN PRINT FORMAT CODE IS   0
 HEADS WILL BE SAVED ON UNIT   51    DRAWDOWNS WILL BE SAVED ON UNIT    0

 LPF -- LAYER-PROPERTY FLOW PACKAGE, VERSION 7, 5/2/2005
         INPUT READ FROM UNIT   15
 # LPF package for MODFLOW-2005 generated by Flopy 3.9.5
 CELL-BY-CELL FLOWS WILL BE SAVED ON UNIT   53
 HEAD AT CELLS THAT CONVERT TO DRY= -1.00000E+30
 No named parameters
 STORAGECOEFFICIENT OPTION:
 Read storage coefficient rather than specific storage

   LAYER FLAGS:
 LAYER       LAYTYP        LAYAVG         CHANI        LAYVKA        LAYWET
 ---------------------------------------------------------------------------
    1             1             0     1.000E+00             0             0

   INTERPRETATION OF LAYER FLAGS:
                        INTERBLOCK     HORIZONTAL    DATA IN
         LAYER TYPE   TRANSMISSIVITY   ANISOTROPY   ARRAY VKA   WETTABILITY
 LAYER      (LAYTYP)      (LAYAVG)       (CHANI)      (LAYVKA)      (LAYWET)
 ---------------------------------------------------------------------------
    1   CONVERTIBLE      HARMONIC     1.000E+00    VERTICAL K  NON-WETTABLE

 WETTING CAPABILITY IS NOT ACTIVE IN ANY LAYER



              HYD. COND. ALONG ROWS FOR LAYER   1
 READING ON UNIT   15 WITH FORMAT: (25E15.6)           

      VERTICAL HYD. COND. =   1.00000     FOR LAYER   1

 WEL -- WELL PACKAGE, VERSION 7, 5/2/2005 INPUT READ FROM UNIT   20
 # WEL package for MODFLOW-2005 generated by Flopy 3.9.5
 No named parameters
 MAXIMUM OF      1 ACTIVE WELLS AT ONE TIME


     0 Well parameters

 RCH -- RECHARGE PACKAGE, VERSION 7, 5/2/2005 INPUT READ FROM UNIT   19
 # RCH package for MODFLOW-2005 generated by Flopy 3.9.5
 No named parameters
 OPTION 3 -- RECHARGE TO HIGHEST ACTIVE NODE IN EACH VERTICAL COLUMN
 CELL-BY-CELL FLOWS WILL BE SAVED ON UNIT   53


     0 Recharge parameters

 PCG -- CONJUGATE-GRADIENT SOLUTION PACKAGE, VERSION 7, 5/2/2005
 # PCG package for MODFLOW-2005 generated by Flopy 3.9.5
 MAXIMUM OF     50 CALLS OF SOLUTION ROUTINE
 MAXIMUM OF     30 INTERNAL ITERATIONS PER CALL TO SOLUTION ROUTINE
 MATRIX PRECONDITIONING TYPE :    1



                                    SOLUTION BY THE CONJUGATE-GRADIENT METHOD
                                   -------------------------------------------
                    MAXIMUM NUMBER OF CALLS TO PCG ROUTINE =       50
                        MAXIMUM ITERATIONS PER CALL TO PCG =       30
                               MATRIX PRECONDITIONING TYPE =        1
        RELAXATION FACTOR (ONLY USED WITH PRECOND. TYPE 1) =    0.10000E+01
 PARAMETER OF POLYNOMIAL PRECOND. = 2 (2) OR IS CALCULATED :        0
                         HEAD CHANGE CRITERION FOR CLOSURE =    0.10000E-04
                     RESIDUAL CHANGE CRITERION FOR CLOSURE =    0.10000E-04
            PCG HEAD AND RESIDUAL CHANGE PRINTOUT INTERVAL =      999
     PRINTING FROM SOLVER IS LIMITED(1) OR SUPPRESSED (>1) =        3
                            STEADY-STATE DAMPING PARAMETER =    0.10000E+01
                               TRANSIENT DAMPING PARAMETER =    0.10000E+01
1
                            STRESS PERIOD NO.    1, LENGTH =   1.000000    
                            -----------------------------------------------

                              NUMBER OF TIME STEPS =     1

                               MULTIPLIER FOR DELT =     1.000

                            INITIAL TIME STEP SIZE =   1.000000    

 WELL NO.  LAYER   ROW   COL   STRESS RATE         
 --------------------------------------------------
      1      1     11     16       0.000    

      1 WELL 



                           RECHARGE
 READING ON UNIT   19 WITH FORMAT: (25E15.6)           
 
 SOLVING FOR HEAD 

 OUTPUT CONTROL FOR STRESS PERIOD    1   TIME STEP    1
    PRINT HEAD FOR ALL LAYERS
    PRINT BUDGET
    SAVE HEAD FOR ALL LAYERS
    SAVE BUDGET
 UBDSV2 SAVING "   CONSTANT HEAD" ON UNIT  53 AT TIME STEP  1, STRESS PERIOD   1
 UBDSV1 SAVING "FLOW RIGHT FACE " ON UNIT  53 AT TIME STEP  1, STRESS PERIOD   1
 UBDSV1 SAVING "FLOW FRONT FACE " ON UNIT  53 AT TIME STEP  1, STRESS PERIOD   1
 UBDSV3 SAVING "        RECHARGE" ON UNIT  53 AT TIME STEP  1, STRESS PERIOD   1
1
              HEAD IN LAYER   1 AT END OF TIME STEP   1 IN STRESS PERIOD    1
  ---------------------------------------------------------------------------

            1           2           3           4           5           6           7           8           9          10
           11          12          13          14          15          16          17          18          19          20
           21          22          23          24          25
 ........................................................................................................................
   1    7.000       6.942       6.883       6.819       6.748       6.669       6.578       6.473       6.352       6.213    
        6.058       5.886       5.700       5.499       5.286       5.059       4.819       4.565       4.295       4.006    
        3.694       3.353       2.973       2.536       2.000    
   2    7.000       6.944       6.886       6.825       6.757       6.680       6.591       6.487       6.366       6.227    
        6.070       5.896       5.707       5.505       5.289       5.062       4.821       4.566       4.295       4.006    
        3.694       3.353       2.973       2.535       2.000    
   3    7.000       6.948       6.893       6.836       6.773       6.701       6.617       6.517       6.396       6.255    
        6.093       5.915       5.721       5.515       5.296       5.066       4.824       4.568       4.296       4.006    
        3.694       3.353       2.973       2.535       2.000    
   4    7.000       6.952       6.903       6.852       6.797       6.734       6.659       6.564       6.444       6.298    
        6.129       5.942       5.741       5.529       5.306       5.072       4.827       4.569       4.297       4.006    
        3.694       3.352       2.972       2.535       2.000    
   5    7.000       6.958       6.915       6.872       6.828       6.779       6.718       6.633       6.514       6.361    
        6.178       5.977       5.765       5.544       5.316       5.078       4.830       4.571       4.297       4.006    
        3.693       3.351       2.971       2.534       2.000    
   6    7.000       6.963       6.927       6.893       6.862       6.834       6.802       6.732       6.615       6.449    
        6.238       6.016       5.789       5.559       5.324       5.082       4.832       4.570       4.296       4.004    
        3.691       3.349       2.970       2.533       2.000    
   7    7.000       6.967       6.936       6.910       6.894       6.893       6.922       6.874       6.759       6.574    
        6.302       6.051       5.809       5.569       5.328       5.083       4.831       4.568       4.292       4.001    
        3.687       3.346       2.967       2.532       2.000    
   8    7.000       6.969       6.940       6.919       6.910       6.923       6.972       6.934       6.820       6.626    
        6.332       6.066       5.815       5.570       5.326       5.079       4.826       4.563       4.287       3.995    
        3.683       3.342       2.964       2.530       2.000    
   9    7.000       6.967       6.937       6.914       6.904       6.916       6.964       6.926       6.811       6.616    
        6.322       6.055       5.804       5.560       5.316       5.069       4.816       4.554       4.279       3.988    
        3.676       3.337       2.960       2.528       2.000    
  10    7.000       6.962       6.927       6.897       6.877       6.873       6.898       6.848       6.731       6.545    
        6.271       6.019       5.776       5.537       5.297       5.053       4.802       4.541       4.268       3.979    
        3.668       3.331       2.955       2.525       2.000    
  11    7.000       6.955       6.911       6.870       6.833       6.799       6.762       6.687       6.567       6.398    
        6.185       5.962       5.735       5.505       5.272       5.032       4.784       4.526       4.255       3.967    
        3.659       3.323       2.950       2.521       2.000    
  12    7.000       6.946       6.893       6.839       6.785       6.727       6.660       6.567       6.444       6.287    
        6.102       5.899       5.687       5.468       5.241       5.006       4.763       4.508       4.239       3.954    
        3.648       3.314       2.943       2.518       2.000    
  13    7.000       6.937       6.873       6.808       6.740       6.665       6.579       6.476       6.349       6.199    
        6.027       5.839       5.638       5.428       5.208       4.979       4.739       4.488       4.223       3.940    
        3.636       3.305       2.936       2.514       2.000    
  14    7.000       6.928       6.855       6.779       6.699       6.612       6.515       6.403       6.275       6.127    
        5.963       5.783       5.591       5.388       5.174       4.950       4.715       4.467       4.205       3.925    
        3.624       3.295       2.929       2.509       2.000    
  15    7.000       6.920       6.839       6.754       6.665       6.568       6.463       6.345       6.214       6.068    
        5.908       5.734       5.548       5.350       5.142       4.922       4.691       4.446       4.187       3.910    
        3.611       3.285       2.921       2.505       2.000    
  16    7.000       6.913       6.824       6.732       6.635       6.532       6.420       6.298       6.165       6.019    
        5.861       5.691       5.509       5.316       5.111       4.895       4.667       4.426       4.169       3.895    
        3.598       3.275       2.914       2.501       2.000    
  17    7.000       6.907       6.812       6.714       6.611       6.502       6.385       6.260       6.125       5.979    
        5.822       5.654       5.475       5.285       5.083       4.871       4.645       4.407       4.153       3.880    
        3.586       3.265       2.907       2.497       2.000    
  18    7.000       6.902       6.802       6.698       6.591       6.477       6.357       6.229       6.092       5.945    
        5.789       5.622       5.445       5.257       5.058       4.848       4.625       4.389       4.137       3.867    
        3.575       3.256       2.900       2.493       2.000    
  19    7.000       6.898       6.794       6.686       6.574       6.457       6.333       6.203       6.065       5.917    
        5.761       5.595       5.420       5.233       5.037       4.828       4.608       4.373       4.123       3.855    
        3.565       3.247       2.894       2.489       2.000    
  20    7.000       6.895       6.787       6.676       6.561       6.441       6.315       6.182       6.043       5.895    
        5.739       5.573       5.398       5.213       5.018       4.811       4.592       4.359       4.111       3.844    
        3.556       3.240       2.889       2.486       2.000    
  21    7.000       6.892       6.781       6.668       6.550       6.428       6.300       6.166       6.025       5.877    
        5.720       5.555       5.381       5.197       5.003       4.797       4.579       4.347       4.100       3.835    
        3.548       3.234       2.884       2.483       2.000    
  22    7.000       6.890       6.777       6.661       6.542       6.418       6.289       6.154       6.012       5.863    
        5.706       5.541       5.367       5.184       4.990       4.786       4.569       4.338       4.092       3.828    
        3.542       3.229       2.880       2.481       2.000    
  23    7.000       6.888       6.774       6.657       6.536       6.411       6.280       6.144       6.002       5.853    
        5.696       5.531       5.357       5.174       4.981       4.777       4.561       4.331       4.085       3.822    
        3.537       3.225       2.877       2.479       2.000    
  24    7.000       6.887       6.772       6.654       6.532       6.406       6.275       6.139       5.996       5.846    
        5.689       5.524       5.351       5.168       4.975       4.771       4.555       4.326       4.081       3.818    
        3.534       3.222       2.875       2.478       2.000    
  25    7.000       6.887       6.771       6.653       6.530       6.404       6.272       6.136       5.993       5.843    
        5.686       5.521       5.348       5.165       4.972       4.769       4.553       4.324       4.079       3.816    
        3.532       3.221       2.874       2.478       2.000    

 HEAD WILL BE SAVED ON UNIT   51 AT END OF TIME STEP    1, STRESS PERIOD    1
1
  VOLUMETRIC BUDGET FOR ENTIRE MODEL AT END OF TIME STEP    1, STRESS PERIOD   1
  ------------------------------------------------------------------------------

     CUMULATIVE VOLUMES      L**3       RATES FOR THIS TIME STEP      L**3/T
     ------------------                 ------------------------

           IN:                                      IN:
           ---                                      ---
             STORAGE =           0.0000               STORAGE =           0.0000
       CONSTANT HEAD =          12.3992         CONSTANT HEAD =          12.3992
               WELLS =           0.0000                 WELLS =           0.0000
            RECHARGE =          16.0000              RECHARGE =          16.0000

            TOTAL IN =          28.3992              TOTAL IN =          28.3992

          OUT:                                     OUT:
          ----                                     ----
             STORAGE =           0.0000               STORAGE =           0.0000
       CONSTANT HEAD =          28.3993         CONSTANT HEAD =          28.3993
               WELLS =           0.0000                 WELLS =           0.0000
            RECHARGE =           0.0000              RECHARGE =           0.0000

           TOTAL OUT =          28.3993             TOTAL OUT =          28.3993

            IN - OUT =      -6.1035E-05              IN - OUT =      -6.1035E-05

 PERCENT DISCREPANCY =          -0.00     PERCENT DISCREPANCY =          -0.00






         TIME SUMMARY AT END OF TIME STEP    1 IN STRESS PERIOD    1
                    SECONDS     MINUTES      HOURS       DAYS        YEARS
                    -----------------------------------------------------------
   TIME STEP LENGTH  86400.      1440.0      24.000      1.0000     2.73785E-03
 STRESS PERIOD TIME  86400.      1440.0      24.000      1.0000     2.73785E-03
         TOTAL TIME  86400.      1440.0      24.000      1.0000     2.73785E-03
1

 Run end date and time (yyyy/mm/dd hh:mm:ss): 2026/02/05 22:11:32
 Elapsed run time:  0.013 Seconds

